MODEL 1
REMARK VINA RESULT:   -10.819      0.000      0.000
REMARK INTER + INTRA:         -15.267
REMARK INTER:                 -14.297
REMARK INTRA:                  -0.970
REMARK UNBOUND:                -0.970
REMARK  6 active torsions:
REMARK  status: ('A' for Active; 'I' for Inactive)
REMARK    1  A    between atoms: O_1  and  C_22 
REMARK    2  A    between atoms: C_6  and  C_13 
REMARK    3  A    between atoms: C_13  and  C_21 
REMARK    4  A    between atoms: C_21  and  C_24 
REMARK    5  A    between atoms: C_24  and  C_25 
REMARK    6  A    between atoms: C_25  and  C_26 
ROOT
ATOM      1  C   UNL d   1     112.592 149.413 202.613  0.00  0.00     0.000 C 
ATOM      2  C   UNL d   1     113.336 148.143 203.100  0.00  0.00     0.000 C 
ATOM      3  C   UNL d   1     114.208 148.415 204.326  0.00  0.00     0.005 C 
ATOM      4  C   UNL d   1     113.323 148.923 205.501  0.00  0.00     0.004 C 
ATOM      5  C   UNL d   1     111.939 148.893 201.293  0.00  0.00     0.000 C 
ATOM      6  C   UNL d   1     111.590 149.741 203.737  0.00  0.00     0.000 C 
ATOM      7  C   UNL d   1     114.208 149.327 206.748  0.00  0.00     0.015 C 
ATOM      8  C   UNL d   1     114.009 147.614 201.846  0.00  0.00     0.000 C 
ATOM      9  C   UNL d   1     112.297 150.013 205.076  0.00  0.00     0.000 C 
ATOM     10  C   UNL d   1     112.967 147.854 200.751  0.00  0.00     0.000 C 
ATOM     11  C   UNL d   1     114.998 147.171 204.756  0.00  0.00     0.025 C 
ATOM     12  C   UNL d   1     113.560 150.594 202.350  0.00  0.00     0.000 C 
ATOM     13  C   UNL d   1     115.317 148.292 206.984  0.00  0.00    -0.047 C 
ATOM     14  C   UNL d   1     113.291 149.372 208.005  0.00  0.00     0.006 C 
ATOM     15  C   UNL d   1     115.635 147.332 206.101  0.00  0.00    -0.035 C 
ATOM     16  C   UNL d   1     114.869 150.712 206.543  0.00  0.00     0.004 C 
ATOM     17  C   UNL d   1     116.060 148.386 208.303  0.00  0.00     0.051 C 
ATOM     18  C   UNL d   1     114.047 149.512 209.328  0.00  0.00     0.030 C 
ATOM     19  C   UNL d   1     115.100 148.419 209.491  0.00  0.00     0.115 C 
ENDROOT
BRANCH   5  20
ATOM     20  C   UNL d   1     111.505 149.909 200.180  0.00  0.00     0.000 C 
ATOM     21  C   UNL d   1     110.497 150.949 200.683  0.00  0.00     0.000 C 
BRANCH  20  22
ATOM     22  C   UNL d   1     110.933 149.127 198.962  0.00  0.00     0.000 C 
BRANCH  22  23
ATOM     23  C   UNL d   1     111.455 149.492 197.565  0.00  0.00     0.000 C 
BRANCH  23  24
ATOM     24  C   UNL d   1     112.921 149.148 197.276  0.00  0.00     0.000 C 
BRANCH  24  25
ATOM     25  C   UNL d   1     113.949 150.198 197.736  0.00  0.00     0.000 C 
ATOM     26  C   UNL d   1     115.324 149.967 197.102  0.00  0.00     0.000 C 
ATOM     27  C   UNL d   1     113.452 151.605 197.395  0.00  0.00     0.000 C 
ENDBRANCH  24  25
ENDBRANCH  23  24
ENDBRANCH  22  23
ENDBRANCH  20  22
ENDBRANCH   5  20
BRANCH  19  28
ATOM     28  O   UNL d   1     115.850 148.660 210.680  0.00  0.00    -0.385 OA
ATOM     29  H   UNL d   1     116.780 148.792 210.418  0.00  0.00     0.210 HD
ENDBRANCH  19  28
TORSDOF 6
ENDMDL
MODEL 2
REMARK VINA RESULT:   -10.290      3.158      8.498
REMARK INTER + INTRA:         -14.569
REMARK INTER:                 -12.936
REMARK INTRA:                  -1.633
REMARK UNBOUND:                -0.970
REMARK  6 active torsions:
REMARK  status: ('A' for Active; 'I' for Inactive)
REMARK    1  A    between atoms: O_1  and  C_22 
REMARK    2  A    between atoms: C_6  and  C_13 
REMARK    3  A    between atoms: C_13  and  C_21 
REMARK    4  A    between atoms: C_21  and  C_24 
REMARK    5  A    between atoms: C_24  and  C_25 
REMARK    6  A    between atoms: C_25  and  C_26 
ROOT
ATOM      1  C   UNL d   1     114.173 148.702 206.223  0.00  0.00     0.000 C 
ATOM      2  C   UNL d   1     114.845 147.951 205.045  0.00  0.00     0.000 C 
ATOM      3  C   UNL d   1     113.971 147.938 203.790  0.00  0.00     0.005 C 
ATOM      4  C   UNL d   1     113.696 149.397 203.324  0.00  0.00     0.004 C 
ATOM      5  C   UNL d   1     115.182 148.414 207.380  0.00  0.00     0.000 C 
ATOM      6  C   UNL d   1     114.116 150.175 205.774  0.00  0.00     0.000 C 
ATOM      7  C   UNL d   1     112.697 149.425 202.097  0.00  0.00     0.015 C 
ATOM      8  C   UNL d   1     115.250 146.619 205.648  0.00  0.00     0.000 C 
ATOM      9  C   UNL d   1     113.295 150.352 204.486  0.00  0.00     0.000 C 
ATOM     10  C   UNL d   1     115.730 146.992 207.053  0.00  0.00     0.000 C 
ATOM     11  C   UNL d   1     114.611 147.129 202.653  0.00  0.00     0.025 C 
ATOM     12  C   UNL d   1     112.761 148.149 206.541  0.00  0.00     0.000 C 
ATOM     13  C   UNL d   1     113.050 148.325 201.086  0.00  0.00    -0.047 C 
ATOM     14  C   UNL d   1     112.822 150.809 201.396  0.00  0.00     0.006 C 
ATOM     15  C   UNL d   1     113.917 147.332 201.343  0.00  0.00    -0.035 C 
ATOM     16  C   UNL d   1     111.234 149.212 202.559  0.00  0.00     0.004 C 
ATOM     17  C   UNL d   1     112.371 148.409 199.732  0.00  0.00     0.051 C 
ATOM     18  C   UNL d   1     112.097 150.897 200.052  0.00  0.00     0.030 C 
ATOM     19  C   UNL d   1     112.539 149.789 199.100  0.00  0.00     0.115 C 
ENDROOT
BRANCH   5  20
ATOM     20  C   UNL d   1     114.715 148.523 208.873  0.00  0.00     0.000 C 
ATOM     21  C   UNL d   1     114.922 149.925 209.460  0.00  0.00     0.000 C 
BRANCH  20  22
ATOM     22  C   UNL d   1     115.455 147.452 209.725  0.00  0.00     0.000 C 
BRANCH  22  23
ATOM     23  C   UNL d   1     114.605 146.510 210.590  0.00  0.00     0.000 C 
BRANCH  23  24
ATOM     24  C   UNL d   1     114.120 145.220 209.916  0.00  0.00     0.000 C 
BRANCH  24  25
ATOM     25  C   UNL d   1     112.830 145.353 209.087  0.00  0.00     0.000 C 
ATOM     26  C   UNL d   1     112.914 144.572 207.772  0.00  0.00     0.000 C 
ATOM     27  C   UNL d   1     111.629 144.867 209.901  0.00  0.00     0.000 C 
ENDBRANCH  24  25
ENDBRANCH  23  24
ENDBRANCH  22  23
ENDBRANCH  20  22
ENDBRANCH   5  20
BRANCH  19  28
ATOM     28  O   UNL d   1     111.755 149.847 197.910  0.00  0.00    -0.385 OA
ATOM     29  H   UNL d   1     110.857 150.127 198.165  0.00  0.00     0.210 HD
ENDBRANCH  19  28
TORSDOF 6
ENDMDL
MODEL 3
REMARK VINA RESULT:    -8.654     38.516     42.997
REMARK INTER + INTRA:         -12.406
REMARK INTER:                 -10.692
REMARK INTRA:                  -1.715
REMARK UNBOUND:                -0.970
REMARK  6 active torsions:
REMARK  status: ('A' for Active; 'I' for Inactive)
REMARK    1  A    between atoms: O_1  and  C_22 
REMARK    2  A    between atoms: C_6  and  C_13 
REMARK    3  A    between atoms: C_13  and  C_21 
REMARK    4  A    between atoms: C_21  and  C_24 
REMARK    5  A    between atoms: C_24  and  C_25 
REMARK    6  A    between atoms: C_25  and  C_26 
ROOT
ATOM      1  C   UNL d   1     126.805 125.705 171.457  0.00  0.00     0.000 C 
ATOM      2  C   UNL d   1     128.271 125.979 171.033  0.00  0.00     0.000 C 
ATOM      3  C   UNL d   1     129.148 124.731 171.143  0.00  0.00     0.005 C 
ATOM      4  C   UNL d   1     128.591 123.610 170.220  0.00  0.00     0.004 C 
ATOM      5  C   UNL d   1     126.203 127.146 171.410  0.00  0.00     0.000 C 
ATOM      6  C   UNL d   1     126.253 124.747 170.384  0.00  0.00     0.000 C 
ATOM      7  C   UNL d   1     129.406 122.266 170.398  0.00  0.00     0.015 C 
ATOM      8  C   UNL d   1     128.660 127.201 171.842  0.00  0.00     0.000 C 
ATOM      9  C   UNL d   1     127.048 123.431 170.326  0.00  0.00     0.000 C 
ATOM     10  C   UNL d   1     127.395 128.062 171.824  0.00  0.00     0.000 C 
ATOM     11  C   UNL d   1     130.614 125.028 170.793  0.00  0.00     0.025 C 
ATOM     12  C   UNL d   1     126.710 125.089 172.876  0.00  0.00     0.000 C 
ATOM     13  C   UNL d   1     130.913 122.551 170.474  0.00  0.00    -0.047 C 
ATOM     14  C   UNL d   1     129.130 121.358 169.164  0.00  0.00     0.006 C 
ATOM     15  C   UNL d   1     131.427 123.783 170.625  0.00  0.00    -0.035 C 
ATOM     16  C   UNL d   1     128.985 121.521 171.689  0.00  0.00     0.004 C 
ATOM     17  C   UNL d   1     131.834 121.353 170.354  0.00  0.00     0.051 C 
ATOM     18  C   UNL d   1     130.036 120.128 169.077  0.00  0.00     0.030 C 
ATOM     19  C   UNL d   1     131.512 120.513 169.120  0.00  0.00     0.115 C 
ENDROOT
BRANCH   5  20
ATOM     20  C   UNL d   1     124.908 127.483 172.226  0.00  0.00     0.000 C 
ATOM     21  C   UNL d   1     123.620 127.194 171.445  0.00  0.00     0.000 C 
BRANCH  20  22
ATOM     22  C   UNL d   1     124.956 128.970 172.683  0.00  0.00     0.000 C 
BRANCH  22  23
ATOM     23  C   UNL d   1     124.792 129.266 174.181  0.00  0.00     0.000 C 
BRANCH  23  24
ATOM     24  C   UNL d   1     126.086 129.439 174.985  0.00  0.00     0.000 C 
BRANCH  24  25
ATOM     25  C   UNL d   1     126.476 128.244 175.874  0.00  0.00     0.000 C 
ATOM     26  C   UNL d   1     125.396 127.158 175.877  0.00  0.00     0.000 C 
ATOM     27  C   UNL d   1     127.806 127.650 175.404  0.00  0.00     0.000 C 
ENDBRANCH  24  25
ENDBRANCH  23  24
ENDBRANCH  22  23
ENDBRANCH  20  22
ENDBRANCH   5  20
BRANCH  19  28
ATOM     28  O   UNL d   1     132.308 119.329 169.150  0.00  0.00    -0.385 OA
ATOM     29  H   UNL d   1     132.293 118.944 168.255  0.00  0.00     0.210 HD
ENDBRANCH  19  28
TORSDOF 6
ENDMDL
MODEL 4
REMARK VINA RESULT:    -8.510     38.969     43.322
REMARK INTER + INTRA:         -12.216
REMARK INTER:                 -10.745
REMARK INTRA:                  -1.471
REMARK UNBOUND:                -0.970
REMARK  6 active torsions:
REMARK  status: ('A' for Active; 'I' for Inactive)
REMARK    1  A    between atoms: O_1  and  C_22 
REMARK    2  A    between atoms: C_6  and  C_13 
REMARK    3  A    between atoms: C_13  and  C_21 
REMARK    4  A    between atoms: C_21  and  C_24 
REMARK    5  A    between atoms: C_24  and  C_25 
REMARK    6  A    between atoms: C_25  and  C_26 
ROOT
ATOM      1  C   UNL d   1     126.517 124.753 171.023  0.00  0.00     0.000 C 
ATOM      2  C   UNL d   1     126.978 123.590 171.938  0.00  0.00     0.000 C 
ATOM      3  C   UNL d   1     128.076 122.743 171.291  0.00  0.00     0.005 C 
ATOM      4  C   UNL d   1     129.319 123.631 170.993  0.00  0.00     0.004 C 
ATOM      5  C   UNL d   1     125.313 125.321 171.840  0.00  0.00     0.000 C 
ATOM      6  C   UNL d   1     127.733 125.696 170.936  0.00  0.00     0.000 C 
ATOM      7  C   UNL d   1     130.430 122.814 170.217  0.00  0.00     0.015 C 
ATOM      8  C   UNL d   1     125.684 122.902 172.330  0.00  0.00     0.000 C 
ATOM      9  C   UNL d   1     128.962 124.994 170.334  0.00  0.00     0.000 C 
ATOM     10  C   UNL d   1     124.709 124.064 172.537  0.00  0.00     0.000 C 
ATOM     11  C   UNL d   1     128.474 121.550 172.172  0.00  0.00     0.025 C 
ATOM     12  C   UNL d   1     126.079 124.258 169.621  0.00  0.00     0.000 C 
ATOM     13  C   UNL d   1     130.587 121.408 170.815  0.00  0.00    -0.047 C 
ATOM     14  C   UNL d   1     131.783 123.571 170.358  0.00  0.00     0.006 C 
ATOM     15  C   UNL d   1     129.723 120.877 171.696  0.00  0.00    -0.035 C 
ATOM     16  C   UNL d   1     130.075 122.669 168.717  0.00  0.00     0.004 C 
ATOM     17  C   UNL d   1     131.801 120.616 170.370  0.00  0.00     0.051 C 
ATOM     18  C   UNL d   1     132.997 122.781 169.866  0.00  0.00     0.030 C 
ATOM     19  C   UNL d   1     133.091 121.416 170.542  0.00  0.00     0.115 C 
ENDROOT
BRANCH   5  20
ATOM     20  C   UNL d   1     124.208 126.168 171.121  0.00  0.00     0.000 C 
ATOM     21  C   UNL d   1     124.749 127.478 170.534  0.00  0.00     0.000 C 
BRANCH  20  22
ATOM     22  C   UNL d   1     123.043 126.448 172.115  0.00  0.00     0.000 C 
BRANCH  22  23
ATOM     23  C   UNL d   1     123.225 127.584 173.133  0.00  0.00     0.000 C 
BRANCH  23  24
ATOM     24  C   UNL d   1     123.736 127.176 174.521  0.00  0.00     0.000 C 
BRANCH  24  25
ATOM     25  C   UNL d   1     125.063 127.825 174.953  0.00  0.00     0.000 C 
ATOM     26  C   UNL d   1     126.189 126.794 175.077  0.00  0.00     0.000 C 
ATOM     27  C   UNL d   1     125.466 128.913 173.954  0.00  0.00     0.000 C 
ENDBRANCH  24  25
ENDBRANCH  23  24
ENDBRANCH  22  23
ENDBRANCH  20  22
ENDBRANCH   5  20
BRANCH  19  28
ATOM     28  O   UNL d   1     134.169 120.678 169.969  0.00  0.00    -0.385 OA
ATOM     29  H   UNL d   1     134.823 120.520 170.674  0.00  0.00     0.210 HD
ENDBRANCH  19  28
TORSDOF 6
ENDMDL
MODEL 5
REMARK VINA RESULT:    -8.345     14.566     16.992
REMARK INTER + INTRA:         -11.997
REMARK INTER:                 -10.475
REMARK INTRA:                  -1.523
REMARK UNBOUND:                -0.970
REMARK  6 active torsions:
REMARK  status: ('A' for Active; 'I' for Inactive)
REMARK    1  A    between atoms: O_1  and  C_22 
REMARK    2  A    between atoms: C_6  and  C_13 
REMARK    3  A    between atoms: C_13  and  C_21 
REMARK    4  A    between atoms: C_21  and  C_24 
REMARK    5  A    between atoms: C_24  and  C_25 
REMARK    6  A    between atoms: C_25  and  C_26 
ROOT
ATOM      1  C   UNL d   1     126.911 141.544 198.282  0.00  0.00     0.000 C 
ATOM      2  C   UNL d   1     125.977 140.788 197.303  0.00  0.00     0.000 C 
ATOM      3  C   UNL d   1     124.995 139.869 198.031  0.00  0.00     0.005 C 
ATOM      4  C   UNL d   1     124.098 140.707 198.988  0.00  0.00     0.004 C 
ATOM      5  C   UNL d   1     127.886 142.249 197.286  0.00  0.00     0.000 C 
ATOM      6  C   UNL d   1     125.985 142.502 199.056  0.00  0.00     0.000 C 
ATOM      7  C   UNL d   1     123.151 139.773 199.844  0.00  0.00     0.015 C 
ATOM      8  C   UNL d   1     126.930 140.165 196.300  0.00  0.00     0.000 C 
ATOM      9  C   UNL d   1     124.894 141.743 199.832  0.00  0.00     0.000 C 
ATOM     10  C   UNL d   1     127.994 141.247 196.096  0.00  0.00     0.000 C 
ATOM     11  C   UNL d   1     124.125 139.068 197.052  0.00  0.00     0.025 C 
ATOM     12  C   UNL d   1     127.662 140.582 199.237  0.00  0.00     0.000 C 
ATOM     13  C   UNL d   1     122.552 138.661 198.972  0.00  0.00    -0.047 C 
ATOM     14  C   UNL d   1     121.991 140.642 200.412  0.00  0.00     0.006 C 
ATOM     15  C   UNL d   1     122.982 138.380 197.731  0.00  0.00    -0.035 C 
ATOM     16  C   UNL d   1     123.920 139.114 201.015  0.00  0.00     0.004 C 
ATOM     17  C   UNL d   1     121.409 137.868 199.577  0.00  0.00     0.051 C 
ATOM     18  C   UNL d   1     120.863 139.836 201.059  0.00  0.00     0.030 C 
ATOM     19  C   UNL d   1     120.306 138.782 200.106  0.00  0.00     0.115 C 
ENDROOT
BRANCH   5  20
ATOM     20  C   UNL d   1     129.300 142.720 197.772  0.00  0.00     0.000 C 
ATOM     21  C   UNL d   1     129.538 144.218 197.548  0.00  0.00     0.000 C 
BRANCH  20  22
ATOM     22  C   UNL d   1     130.398 141.873 197.065  0.00  0.00     0.000 C 
BRANCH  22  23
ATOM     23  C   UNL d   1     131.646 141.494 197.877  0.00  0.00     0.000 C 
BRANCH  23  24
ATOM     24  C   UNL d   1     131.408 141.084 199.336  0.00  0.00     0.000 C 
BRANCH  24  25
ATOM     25  C   UNL d   1     131.837 142.120 200.391  0.00  0.00     0.000 C 
ATOM     26  C   UNL d   1     132.506 143.341 199.753  0.00  0.00     0.000 C 
ATOM     27  C   UNL d   1     130.626 142.565 201.215  0.00  0.00     0.000 C 
ENDBRANCH  24  25
ENDBRANCH  23  24
ENDBRANCH  22  23
ENDBRANCH  20  22
ENDBRANCH   5  20
BRANCH  19  28
ATOM     28  O   UNL d   1     119.341 137.987 200.793  0.00  0.00    -0.385 OA
ATOM     29  H   UNL d   1     119.254 138.347 201.694  0.00  0.00     0.210 HD
ENDBRANCH  19  28
TORSDOF 6
ENDMDL
MODEL 6
REMARK VINA RESULT:    -8.293      3.681      9.083
REMARK INTER + INTRA:         -11.930
REMARK INTER:                 -11.366
REMARK INTRA:                  -0.563
REMARK UNBOUND:                -0.970
REMARK  6 active torsions:
REMARK  status: ('A' for Active; 'I' for Inactive)
REMARK    1  A    between atoms: O_1  and  C_22 
REMARK    2  A    between atoms: C_6  and  C_13 
REMARK    3  A    between atoms: C_13  and  C_21 
REMARK    4  A    between atoms: C_21  and  C_24 
REMARK    5  A    between atoms: C_24  and  C_25 
REMARK    6  A    between atoms: C_25  and  C_26 
ROOT
ATOM      1  C   UNL d   1     113.248 148.716 201.702  0.00  0.00     0.000 C 
ATOM      2  C   UNL d   1     112.515 150.054 201.425  0.00  0.00     0.000 C 
ATOM      3  C   UNL d   1     112.357 150.329 199.929  0.00  0.00     0.005 C 
ATOM      4  C   UNL d   1     111.529 149.190 199.267  0.00  0.00     0.004 C 
ATOM      5  C   UNL d   1     113.414 148.779 203.254  0.00  0.00     0.000 C 
ATOM      6  C   UNL d   1     112.282 147.623 201.206  0.00  0.00     0.000 C 
ATOM      7  C   UNL d   1     111.447 149.383 197.699  0.00  0.00     0.015 C 
ATOM      8  C   UNL d   1     113.275 151.065 202.262  0.00  0.00     0.000 C 
ATOM      9  C   UNL d   1     111.975 147.766 199.705  0.00  0.00     0.000 C 
ATOM     10  C   UNL d   1     113.591 150.300 203.550  0.00  0.00     0.000 C 
ATOM     11  C   UNL d   1     111.697 151.690 199.662  0.00  0.00     0.025 C 
ATOM     12  C   UNL d   1     114.617 148.637 200.980  0.00  0.00     0.000 C 
ATOM     13  C   UNL d   1     111.191 150.855 197.345  0.00  0.00    -0.047 C 
ATOM     14  C   UNL d   1     110.263 148.526 197.162  0.00  0.00     0.006 C 
ATOM     15  C   UNL d   1     111.284 151.857 198.234  0.00  0.00    -0.035 C 
ATOM     16  C   UNL d   1     112.759 148.937 197.009  0.00  0.00     0.004 C 
ATOM     17  C   UNL d   1     110.802 151.147 195.908  0.00  0.00     0.051 C 
ATOM     18  C   UNL d   1     109.907 148.797 195.699  0.00  0.00     0.030 C 
ATOM     19  C   UNL d   1     109.633 150.278 195.451  0.00  0.00     0.115 C 
ENDROOT
BRANCH   5  20
ATOM     20  C   UNL d   1     114.521 147.922 203.960  0.00  0.00     0.000 C 
ATOM     21  C   UNL d   1     114.779 146.586 203.254  0.00  0.00     0.000 C 
BRANCH  20  22
ATOM     22  C   UNL d   1     114.127 147.695 205.448  0.00  0.00     0.000 C 
BRANCH  22  23
ATOM     23  C   UNL d   1     114.945 148.421 206.527  0.00  0.00     0.000 C 
BRANCH  23  24
ATOM     24  C   UNL d   1     114.143 149.116 207.634  0.00  0.00     0.000 C 
BRANCH  24  25
ATOM     25  C   UNL d   1     114.150 150.655 207.588  0.00  0.00     0.000 C 
ATOM     26  C   UNL d   1     115.322 151.196 206.764  0.00  0.00     0.000 C 
ATOM     27  C   UNL d   1     112.830 151.170 207.009  0.00  0.00     0.000 C 
ENDBRANCH  24  25
ENDBRANCH  23  24
ENDBRANCH  22  23
ENDBRANCH  20  22
ENDBRANCH   5  20
BRANCH  19  28
ATOM     28  O   UNL d   1     109.419 150.492 194.057  0.00  0.00    -0.385 OA
ATOM     29  H   UNL d   1     108.837 151.269 193.967  0.00  0.00     0.210 HD
ENDBRANCH  19  28
TORSDOF 6
ENDMDL
MODEL 7
REMARK VINA RESULT:    -8.167     39.029     43.453
REMARK INTER + INTRA:         -11.762
REMARK INTER:                 -10.389
REMARK INTRA:                  -1.373
REMARK UNBOUND:                -0.970
REMARK  6 active torsions:
REMARK  status: ('A' for Active; 'I' for Inactive)
REMARK    1  A    between atoms: O_1  and  C_22 
REMARK    2  A    between atoms: C_6  and  C_13 
REMARK    3  A    between atoms: C_13  and  C_21 
REMARK    4  A    between atoms: C_21  and  C_24 
REMARK    5  A    between atoms: C_24  and  C_25 
REMARK    6  A    between atoms: C_25  and  C_26 
ROOT
ATOM      1  C   UNL d   1     127.787 123.165 171.467  0.00  0.00     0.000 C 
ATOM      2  C   UNL d   1     128.363 124.542 171.883  0.00  0.00     0.000 C 
ATOM      3  C   UNL d   1     127.504 125.705 171.384  0.00  0.00     0.005 C 
ATOM      4  C   UNL d   1     126.070 125.595 171.978  0.00  0.00     0.004 C 
ATOM      5  C   UNL d   1     128.922 122.205 171.947  0.00  0.00     0.000 C 
ATOM      6  C   UNL d   1     126.465 123.035 172.250  0.00  0.00     0.000 C 
ATOM      7  C   UNL d   1     125.122 126.716 171.389  0.00  0.00     0.015 C 
ATOM      8  C   UNL d   1     129.812 124.479 171.435  0.00  0.00     0.000 C 
ATOM      9  C   UNL d   1     125.476 124.159 171.898  0.00  0.00     0.000 C 
ATOM     10  C   UNL d   1     130.224 123.040 171.754  0.00  0.00     0.000 C 
ATOM     11  C   UNL d   1     128.121 127.067 171.735  0.00  0.00     0.025 C 
ATOM     12  C   UNL d   1     127.555 123.063 169.939  0.00  0.00     0.000 C 
ATOM     13  C   UNL d   1     125.850 128.066 171.327  0.00  0.00    -0.047 C 
ATOM     14  C   UNL d   1     123.888 126.856 172.328  0.00  0.00     0.006 C 
ATOM     15  C   UNL d   1     127.174 128.202 171.506  0.00  0.00    -0.035 C 
ATOM     16  C   UNL d   1     124.643 126.354 169.962  0.00  0.00     0.004 C 
ATOM     17  C   UNL d   1     124.990 129.286 171.061  0.00  0.00     0.051 C 
ATOM     18  C   UNL d   1     123.002 128.065 172.023  0.00  0.00     0.030 C 
ATOM     19  C   UNL d   1     123.805 129.363 172.021  0.00  0.00     0.115 C 
ENDROOT
BRANCH   5  20
ATOM     20  C   UNL d   1     129.057 120.774 171.321  0.00  0.00     0.000 C 
ATOM     21  C   UNL d   1     128.420 119.682 172.188  0.00  0.00     0.000 C 
BRANCH  20  22
ATOM     22  C   UNL d   1     130.559 120.465 171.057  0.00  0.00     0.000 C 
BRANCH  22  23
ATOM     23  C   UNL d   1     130.985 120.150 169.615  0.00  0.00     0.000 C 
BRANCH  23  24
ATOM     24  C   UNL d   1     132.448 120.440 169.261  0.00  0.00     0.000 C 
BRANCH  24  25
ATOM     25  C   UNL d   1     132.724 121.842 168.690  0.00  0.00     0.000 C 
ATOM     26  C   UNL d   1     131.451 122.499 168.147  0.00  0.00     0.000 C 
ATOM     27  C   UNL d   1     133.347 122.735 169.766  0.00  0.00     0.000 C 
ENDBRANCH  24  25
ENDBRANCH  23  24
ENDBRANCH  22  23
ENDBRANCH  20  22
ENDBRANCH   5  20
BRANCH  19  28
ATOM     28  O   UNL d   1     122.960 130.441 171.621  0.00  0.00    -0.385 OA
ATOM     29  H   UNL d   1     123.506 131.068 171.112  0.00  0.00     0.210 HD
ENDBRANCH  19  28
TORSDOF 6
ENDMDL
MODEL 8
REMARK VINA RESULT:    -8.092     15.450     17.542
REMARK INTER + INTRA:         -11.663
REMARK INTER:                 -10.429
REMARK INTRA:                  -1.234
REMARK UNBOUND:                -0.970
REMARK  6 active torsions:
REMARK  status: ('A' for Active; 'I' for Inactive)
REMARK    1  A    between atoms: O_1  and  C_22 
REMARK    2  A    between atoms: C_6  and  C_13 
REMARK    3  A    between atoms: C_13  and  C_21 
REMARK    4  A    between atoms: C_21  and  C_24 
REMARK    5  A    between atoms: C_24  and  C_25 
REMARK    6  A    between atoms: C_25  and  C_26 
ROOT
ATOM      1  C   UNL d   1     128.006 142.353 198.183  0.00  0.00     0.000 C 
ATOM      2  C   UNL d   1     127.870 143.101 199.533  0.00  0.00     0.000 C 
ATOM      3  C   UNL d   1     129.021 142.784 200.491  0.00  0.00     0.005 C 
ATOM      4  C   UNL d   1     130.373 143.210 199.849  0.00  0.00     0.004 C 
ATOM      5  C   UNL d   1     126.652 142.719 197.497  0.00  0.00     0.000 C 
ATOM      6  C   UNL d   1     129.250 142.968 197.511  0.00  0.00     0.000 C 
ATOM      7  C   UNL d   1     131.594 142.789 200.762  0.00  0.00     0.015 C 
ATOM      8  C   UNL d   1     126.457 142.782 199.984  0.00  0.00     0.000 C 
ATOM      9  C   UNL d   1     130.517 142.774 198.362  0.00  0.00     0.000 C 
ATOM     10  C   UNL d   1     125.648 142.826 198.685  0.00  0.00     0.000 C 
ATOM     11  C   UNL d   1     128.839 143.470 201.852  0.00  0.00     0.025 C 
ATOM     12  C   UNL d   1     128.160 140.823 198.372  0.00  0.00     0.000 C 
ATOM     13  C   UNL d   1     131.293 143.080 202.239  0.00  0.00    -0.047 C 
ATOM     14  C   UNL d   1     132.837 143.621 200.332  0.00  0.00     0.006 C 
ATOM     15  C   UNL d   1     130.073 143.402 202.697  0.00  0.00    -0.035 C 
ATOM     16  C   UNL d   1     131.910 141.280 200.618  0.00  0.00     0.004 C 
ATOM     17  C   UNL d   1     132.467 143.001 203.197  0.00  0.00     0.051 C 
ATOM     18  C   UNL d   1     134.031 143.500 201.280  0.00  0.00     0.030 C 
ATOM     19  C   UNL d   1     133.646 143.845 202.716  0.00  0.00     0.115 C 
ENDROOT
BRANCH   5  20
ATOM     20  C   UNL d   1     126.087 141.819 196.344  0.00  0.00     0.000 C 
ATOM     21  C   UNL d   1     125.968 142.565 195.010  0.00  0.00     0.000 C 
BRANCH  20  22
ATOM     22  C   UNL d   1     124.712 141.232 196.775  0.00  0.00     0.000 C 
BRANCH  22  23
ATOM     23  C   UNL d   1     124.693 139.825 197.392  0.00  0.00     0.000 C 
BRANCH  23  24
ATOM     24  C   UNL d   1     123.458 139.467 198.228  0.00  0.00     0.000 C 
BRANCH  24  25
ATOM     25  C   UNL d   1     123.214 140.356 199.461  0.00  0.00     0.000 C 
ATOM     26  C   UNL d   1     121.757 140.298 199.928  0.00  0.00     0.000 C 
ATOM     27  C   UNL d   1     124.141 139.936 200.604  0.00  0.00     0.000 C 
ENDBRANCH  24  25
ENDBRANCH  23  24
ENDBRANCH  22  23
ENDBRANCH  20  22
ENDBRANCH   5  20
BRANCH  19  28
ATOM     28  O   UNL d   1     134.760 143.608 203.575  0.00  0.00    -0.385 OA
ATOM     29  H   UNL d   1     134.638 142.728 203.977  0.00  0.00     0.210 HD
ENDBRANCH  19  28
TORSDOF 6
ENDMDL
MODEL 9
REMARK VINA RESULT:    -7.926     15.150     17.299
REMARK INTER + INTRA:         -11.444
REMARK INTER:                 -10.112
REMARK INTRA:                  -1.332
REMARK UNBOUND:                -0.970
REMARK  6 active torsions:
REMARK  status: ('A' for Active; 'I' for Inactive)
REMARK    1  A    between atoms: O_1  and  C_22 
REMARK    2  A    between atoms: C_6  and  C_13 
REMARK    3  A    between atoms: C_13  and  C_21 
REMARK    4  A    between atoms: C_21  and  C_24 
REMARK    5  A    between atoms: C_24  and  C_25 
REMARK    6  A    between atoms: C_25  and  C_26 
ROOT
ATOM      1  C   UNL d   1     125.714 141.159 198.414  0.00  0.00     0.000 C 
ATOM      2  C   UNL d   1     124.936 140.924 197.094  0.00  0.00     0.000 C 
ATOM      3  C   UNL d   1     124.435 139.485 196.964  0.00  0.00     0.005 C 
ATOM      4  C   UNL d   1     123.476 139.152 198.143  0.00  0.00     0.004 C 
ATOM      5  C   UNL d   1     126.236 142.616 198.201  0.00  0.00     0.000 C 
ATOM      6  C   UNL d   1     124.659 141.014 199.528  0.00  0.00     0.000 C 
ATOM      7  C   UNL d   1     123.032 137.634 198.105  0.00  0.00     0.015 C 
ATOM      8  C   UNL d   1     125.870 141.455 196.023  0.00  0.00     0.000 C 
ATOM      9  C   UNL d   1     124.012 139.618 199.528  0.00  0.00     0.000 C 
ATOM     10  C   UNL d   1     126.477 142.706 196.664  0.00  0.00     0.000 C 
ATOM     11  C   UNL d   1     123.731 139.241 195.621  0.00  0.00     0.025 C 
ATOM     12  C   UNL d   1     126.878 140.152 198.596  0.00  0.00     0.000 C 
ATOM     13  C   UNL d   1     122.700 137.201 196.670  0.00  0.00    -0.047 C 
ATOM     14  C   UNL d   1     121.756 137.475 198.983  0.00  0.00     0.006 C 
ATOM     15  C   UNL d   1     122.997 137.937 195.587  0.00  0.00    -0.035 C 
ATOM     16  C   UNL d   1     124.148 136.708 198.648  0.00  0.00     0.004 C 
ATOM     17  C   UNL d   1     121.988 135.871 196.512  0.00  0.00     0.051 C 
ATOM     18  C   UNL d   1     121.070 136.114 198.850  0.00  0.00     0.030 C 
ATOM     19  C   UNL d   1     120.745 135.787 197.395  0.00  0.00     0.115 C 
ENDROOT
BRANCH   5  20
ATOM     20  C   UNL d   1     127.477 143.130 199.010  0.00  0.00     0.000 C 
ATOM     21  C   UNL d   1     127.088 144.029 200.190  0.00  0.00     0.000 C 
BRANCH  20  22
ATOM     22  C   UNL d   1     128.450 143.871 198.047  0.00  0.00     0.000 C 
BRANCH  22  23
ATOM     23  C   UNL d   1     129.911 143.400 198.001  0.00  0.00     0.000 C 
BRANCH  23  24
ATOM     24  C   UNL d   1     130.237 142.120 198.780  0.00  0.00     0.000 C 
BRANCH  24  25
ATOM     25  C   UNL d   1     131.235 142.289 199.940  0.00  0.00     0.000 C 
ATOM     26  C   UNL d   1     132.308 143.335 199.623  0.00  0.00     0.000 C 
ATOM     27  C   UNL d   1     130.492 142.681 201.220  0.00  0.00     0.000 C 
ENDBRANCH  24  25
ENDBRANCH  23  24
ENDBRANCH  22  23
ENDBRANCH  20  22
ENDBRANCH   5  20
BRANCH  19  28
ATOM     28  O   UNL d   1     120.213 134.466 197.315  0.00  0.00    -0.385 OA
ATOM     29  H   UNL d   1     120.584 134.050 196.515  0.00  0.00     0.210 HD
ENDBRANCH  19  28
TORSDOF 6
ENDMDL
MODEL 10
REMARK VINA RESULT:    -7.894     39.554     43.909
REMARK INTER + INTRA:         -11.402
REMARK INTER:                 -10.250
REMARK INTRA:                  -1.152
REMARK UNBOUND:                -0.970
REMARK  6 active torsions:
REMARK  status: ('A' for Active; 'I' for Inactive)
REMARK    1  A    between atoms: O_1  and  C_22 
REMARK    2  A    between atoms: C_6  and  C_13 
REMARK    3  A    between atoms: C_13  and  C_21 
REMARK    4  A    between atoms: C_21  and  C_24 
REMARK    5  A    between atoms: C_24  and  C_25 
REMARK    6  A    between atoms: C_25  and  C_26 
ROOT
ATOM      1  C   UNL d   1     130.251 123.767 171.034  0.00  0.00     0.000 C 
ATOM      2  C   UNL d   1     128.837 123.970 170.433  0.00  0.00     0.000 C 
ATOM      3  C   UNL d   1     127.874 124.626 171.425  0.00  0.00     0.005 C 
ATOM      4  C   UNL d   1     128.417 126.024 171.840  0.00  0.00     0.004 C 
ATOM      5  C   UNL d   1     130.947 122.950 169.898  0.00  0.00     0.000 C 
ATOM      6  C   UNL d   1     130.808 125.190 171.230  0.00  0.00     0.000 C 
ATOM      7  C   UNL d   1     127.506 126.681 172.954  0.00  0.00     0.015 C 
ATOM      8  C   UNL d   1     128.476 122.602 169.884  0.00  0.00     0.000 C 
ATOM      9  C   UNL d   1     129.934 126.022 172.185  0.00  0.00     0.000 C 
ATOM     10  C   UNL d   1     129.793 122.093 169.294  0.00  0.00     0.000 C 
ATOM     11  C   UNL d   1     126.457 124.755 170.849  0.00  0.00     0.025 C 
ATOM     12  C   UNL d   1     130.214 122.980 172.368  0.00  0.00     0.000 C 
ATOM     13  C   UNL d   1     126.019 126.473 172.632  0.00  0.00    -0.047 C 
ATOM     14  C   UNL d   1     127.801 128.209 172.990  0.00  0.00     0.006 C 
ATOM     15  C   UNL d   1     125.577 125.634 171.681  0.00  0.00    -0.035 C 
ATOM     16  C   UNL d   1     127.793 126.068 174.347  0.00  0.00     0.004 C 
ATOM     17  C   UNL d   1     125.031 127.287 173.446  0.00  0.00     0.051 C 
ATOM     18  C   UNL d   1     126.826 129.015 173.849  0.00  0.00     0.030 C 
ATOM     19  C   UNL d   1     125.377 128.774 173.432  0.00  0.00     0.115 C 
ENDROOT
BRANCH   5  20
ATOM     20  C   UNL d   1     132.206 122.074 170.221  0.00  0.00     0.000 C 
ATOM     21  C   UNL d   1     133.525 122.780 169.883  0.00  0.00     0.000 C 
BRANCH  20  22
ATOM     22  C   UNL d   1     132.098 120.716 169.468  0.00  0.00     0.000 C 
BRANCH  22  23
ATOM     23  C   UNL d   1     131.537 119.511 170.238  0.00  0.00     0.000 C 
BRANCH  23  24
ATOM     24  C   UNL d   1     130.974 118.365 169.389  0.00  0.00     0.000 C 
BRANCH  24  25
ATOM     25  C   UNL d   1     129.443 118.208 169.424  0.00  0.00     0.000 C 
ATOM     26  C   UNL d   1     128.827 118.886 170.651  0.00  0.00     0.000 C 
ATOM     27  C   UNL d   1     128.826 118.788 168.148  0.00  0.00     0.000 C 
ENDBRANCH  24  25
ENDBRANCH  23  24
ENDBRANCH  22  23
ENDBRANCH  20  22
ENDBRANCH   5  20
BRANCH  19  28
ATOM     28  O   UNL d   1     124.506 129.457 174.332  0.00  0.00    -0.385 OA
ATOM     29  H   UNL d   1     124.979 130.246 174.654  0.00  0.00     0.210 HD
ENDBRANCH  19  28
TORSDOF 6
ENDMDL
MODEL 11
REMARK VINA RESULT:    -7.880     15.494     18.266
REMARK INTER + INTRA:         -11.384
REMARK INTER:                  -9.936
REMARK INTRA:                  -1.447
REMARK UNBOUND:                -0.970
REMARK  6 active torsions:
REMARK  status: ('A' for Active; 'I' for Inactive)
REMARK    1  A    between atoms: O_1  and  C_22 
REMARK    2  A    between atoms: C_6  and  C_13 
REMARK    3  A    between atoms: C_13  and  C_21 
REMARK    4  A    between atoms: C_21  and  C_24 
REMARK    5  A    between atoms: C_24  and  C_25 
REMARK    6  A    between atoms: C_25  and  C_26 
ROOT
ATOM      1  C   UNL d   1     127.024 141.721 199.683  0.00  0.00     0.000 C 
ATOM      2  C   UNL d   1     126.886 142.232 198.226  0.00  0.00     0.000 C 
ATOM      3  C   UNL d   1     126.565 141.104 197.243  0.00  0.00     0.005 C 
ATOM      4  C   UNL d   1     125.220 140.429 197.636  0.00  0.00     0.004 C 
ATOM      5  C   UNL d   1     127.506 143.015 200.412  0.00  0.00     0.000 C 
ATOM      6  C   UNL d   1     125.609 141.255 200.076  0.00  0.00     0.000 C 
ATOM      7  C   UNL d   1     124.916 139.182 196.711  0.00  0.00     0.015 C 
ATOM      8  C   UNL d   1     128.153 143.037 198.002  0.00  0.00     0.000 C 
ATOM      9  C   UNL d   1     125.099 140.130 199.159  0.00  0.00     0.000 C 
ATOM     10  C   UNL d   1     128.365 143.751 199.339  0.00  0.00     0.000 C 
ATOM     11  C   UNL d   1     126.505 141.606 195.794  0.00  0.00     0.025 C 
ATOM     12  C   UNL d   1     128.057 140.573 199.806  0.00  0.00     0.000 C 
ATOM     13  C   UNL d   1     125.242 139.502 195.246  0.00  0.00    -0.047 C 
ATOM     14  C   UNL d   1     123.401 138.846 196.825  0.00  0.00     0.006 C 
ATOM     15  C   UNL d   1     125.925 140.591 194.859  0.00  0.00    -0.035 C 
ATOM     16  C   UNL d   1     125.751 137.950 197.139  0.00  0.00     0.004 C 
ATOM     17  C   UNL d   1     124.736 138.516 194.210  0.00  0.00     0.051 C 
ATOM     18  C   UNL d   1     122.910 137.817 195.805  0.00  0.00     0.030 C 
ATOM     19  C   UNL d   1     123.244 138.238 194.376  0.00  0.00     0.115 C 
ENDROOT
BRANCH   5  20
ATOM     20  C   UNL d   1     128.263 142.909 201.781  0.00  0.00     0.000 C 
ATOM     21  C   UNL d   1     127.763 143.922 202.818  0.00  0.00     0.000 C 
BRANCH  20  22
ATOM     22  C   UNL d   1     129.792 143.072 201.541  0.00  0.00     0.000 C 
BRANCH  22  23
ATOM     23  C   UNL d   1     130.689 141.846 201.769  0.00  0.00     0.000 C 
BRANCH  23  24
ATOM     24  C   UNL d   1     131.661 141.495 200.636  0.00  0.00     0.000 C 
BRANCH  24  25
ATOM     25  C   UNL d   1     131.719 142.509 199.479  0.00  0.00     0.000 C 
ATOM     26  C   UNL d   1     132.846 143.529 199.669  0.00  0.00     0.000 C 
ATOM     27  C   UNL d   1     131.904 141.777 198.147  0.00  0.00     0.000 C 
ENDBRANCH  24  25
ENDBRANCH  23  24
ENDBRANCH  22  23
ENDBRANCH  20  22
ENDBRANCH   5  20
BRANCH  19  28
ATOM     28  O   UNL d   1     122.868 137.196 193.477  0.00  0.00    -0.385 OA
ATOM     29  H   UNL d   1     123.388 137.313 192.661  0.00  0.00     0.210 HD
ENDBRANCH  19  28
TORSDOF 6
ENDMDL
MODEL 12
REMARK VINA RESULT:    -7.853     42.166     46.359
REMARK INTER + INTRA:         -11.347
REMARK INTER:                  -9.676
REMARK INTRA:                  -1.671
REMARK UNBOUND:                -0.970
REMARK  6 active torsions:
REMARK  status: ('A' for Active; 'I' for Inactive)
REMARK    1  A    between atoms: O_1  and  C_22 
REMARK    2  A    between atoms: C_6  and  C_13 
REMARK    3  A    between atoms: C_13  and  C_21 
REMARK    4  A    between atoms: C_21  and  C_24 
REMARK    5  A    between atoms: C_24  and  C_25 
REMARK    6  A    between atoms: C_25  and  C_26 
ROOT
ATOM      1  C   UNL d   1     129.549 122.226 171.108  0.00  0.00     0.000 C 
ATOM      2  C   UNL d   1     129.117 121.004 171.958  0.00  0.00     0.000 C 
ATOM      3  C   UNL d   1     128.907 119.750 171.107  0.00  0.00     0.005 C 
ATOM      4  C   UNL d   1     130.232 119.376 170.384  0.00  0.00     0.004 C 
ATOM      5  C   UNL d   1     129.522 123.363 172.179  0.00  0.00     0.000 C 
ATOM      6  C   UNL d   1     130.956 121.870 170.589  0.00  0.00     0.000 C 
ATOM      7  C   UNL d   1     130.021 118.153 169.403  0.00  0.00     0.015 C 
ATOM      8  C   UNL d   1     127.943 121.523 172.768  0.00  0.00     0.000 C 
ATOM      9  C   UNL d   1     130.945 120.595 169.728  0.00  0.00     0.000 C 
ATOM     10  C   UNL d   1     128.363 122.948 173.135  0.00  0.00     0.000 C 
ATOM     11  C   UNL d   1     128.406 118.565 171.945  0.00  0.00     0.025 C 
ATOM     12  C   UNL d   1     128.567 122.508 169.944  0.00  0.00     0.000 C 
ATOM     13  C   UNL d   1     129.148 117.075 170.060  0.00  0.00    -0.047 C 
ATOM     14  C   UNL d   1     131.414 117.539 169.078  0.00  0.00     0.006 C 
ATOM     15  C   UNL d   1     128.460 117.270 171.197  0.00  0.00    -0.035 C 
ATOM     16  C   UNL d   1     129.336 118.600 168.087  0.00  0.00     0.004 C 
ATOM     17  C   UNL d   1     129.096 115.729 169.363  0.00  0.00     0.051 C 
ATOM     18  C   UNL d   1     131.352 116.203 168.336  0.00  0.00     0.030 C 
ATOM     19  C   UNL d   1     130.495 115.184 169.082  0.00  0.00     0.115 C 
ENDROOT
BRANCH   5  20
ATOM     20  C   UNL d   1     129.392 124.859 171.730  0.00  0.00     0.000 C 
ATOM     21  C   UNL d   1     130.680 125.661 171.951  0.00  0.00     0.000 C 
BRANCH  20  22
ATOM     22  C   UNL d   1     128.195 125.519 172.474  0.00  0.00     0.000 C 
BRANCH  22  23
ATOM     23  C   UNL d   1     127.205 126.351 171.645  0.00  0.00     0.000 C 
BRANCH  23  24
ATOM     24  C   UNL d   1     125.790 125.777 171.500  0.00  0.00     0.000 C 
BRANCH  24  25
ATOM     25  C   UNL d   1     125.716 124.327 170.988  0.00  0.00     0.000 C 
ATOM     26  C   UNL d   1     124.751 123.477 171.820  0.00  0.00     0.000 C 
ATOM     27  C   UNL d   1     125.286 124.309 169.519  0.00  0.00     0.000 C 
ENDBRANCH  24  25
ENDBRANCH  23  24
ENDBRANCH  22  23
ENDBRANCH  20  22
ENDBRANCH   5  20
BRANCH  19  28
ATOM     28  O   UNL d   1     130.377 114.000 168.296  0.00  0.00    -0.385 OA
ATOM     29  H   UNL d   1     130.276 113.250 168.911  0.00  0.00     0.210 HD
ENDBRANCH  19  28
TORSDOF 6
ENDMDL
MODEL 13
REMARK VINA RESULT:    -7.825      3.577      8.933
REMARK INTER + INTRA:         -11.310
REMARK INTER:                 -10.263
REMARK INTRA:                  -1.047
REMARK UNBOUND:                -0.970
REMARK  6 active torsions:
REMARK  status: ('A' for Active; 'I' for Inactive)
REMARK    1  A    between atoms: O_1  and  C_22 
REMARK    2  A    between atoms: C_6  and  C_13 
REMARK    3  A    between atoms: C_13  and  C_21 
REMARK    4  A    between atoms: C_21  and  C_24 
REMARK    5  A    between atoms: C_24  and  C_25 
REMARK    6  A    between atoms: C_25  and  C_26 
ROOT
ATOM      1  C   UNL d   1     112.703 149.151 202.913  0.00  0.00     0.000 C 
ATOM      2  C   UNL d   1     112.714 150.454 202.072  0.00  0.00     0.000 C 
ATOM      3  C   UNL d   1     112.630 150.176 200.570  0.00  0.00     0.005 C 
ATOM      4  C   UNL d   1     111.311 149.418 200.247  0.00  0.00     0.004 C 
ATOM      5  C   UNL d   1     112.965 149.715 204.346  0.00  0.00     0.000 C 
ATOM      6  C   UNL d   1     111.295 148.558 202.706  0.00  0.00     0.000 C 
ATOM      7  C   UNL d   1     111.246 149.010 198.720  0.00  0.00     0.015 C 
ATOM      8  C   UNL d   1     113.922 151.211 202.593  0.00  0.00     0.000 C 
ATOM      9  C   UNL d   1     111.016 148.244 201.226  0.00  0.00     0.000 C 
ATOM     10  C   UNL d   1     113.889 150.946 204.100  0.00  0.00     0.000 C 
ATOM     11  C   UNL d   1     112.718 151.466 199.742  0.00  0.00     0.025 C 
ATOM     12  C   UNL d   1     113.809 148.160 202.473  0.00  0.00     0.000 C 
ATOM     13  C   UNL d   1     111.734 150.162 197.830  0.00  0.00    -0.047 C 
ATOM     14  C   UNL d   1     109.766 148.692 198.360  0.00  0.00     0.006 C 
ATOM     15  C   UNL d   1     112.362 151.251 198.305  0.00  0.00    -0.035 C 
ATOM     16  C   UNL d   1     112.124 147.767 198.433  0.00  0.00     0.004 C 
ATOM     17  C   UNL d   1     111.462 150.031 196.344  0.00  0.00     0.051 C 
ATOM     18  C   UNL d   1     109.510 148.518 196.862  0.00  0.00     0.030 C 
ATOM     19  C   UNL d   1     109.991 149.726 196.064  0.00  0.00     0.115 C 
ENDROOT
BRANCH   5  20
ATOM     20  C   UNL d   1     113.539 148.777 205.464  0.00  0.00     0.000 C 
ATOM     21  C   UNL d   1     112.618 148.675 206.686  0.00  0.00     0.000 C 
BRANCH  20  22
ATOM     22  C   UNL d   1     114.954 149.275 205.878  0.00  0.00     0.000 C 
BRANCH  22  23
ATOM     23  C   UNL d   1     115.676 148.526 207.009  0.00  0.00     0.000 C 
BRANCH  23  24
ATOM     24  C   UNL d   1     116.189 147.120 206.673  0.00  0.00     0.000 C 
BRANCH  24  25
ATOM     25  C   UNL d   1     115.673 145.993 207.585  0.00  0.00     0.000 C 
ATOM     26  C   UNL d   1     115.648 146.415 209.057  0.00  0.00     0.000 C 
ATOM     27  C   UNL d   1     114.271 145.563 207.147  0.00  0.00     0.000 C 
ENDBRANCH  24  25
ENDBRANCH  23  24
ENDBRANCH  22  23
ENDBRANCH  20  22
ENDBRANCH   5  20
BRANCH  19  28
ATOM     28  O   UNL d   1     109.834 149.466 194.670  0.00  0.00    -0.385 OA
ATOM     29  H   UNL d   1     109.128 148.801 194.575  0.00  0.00     0.210 HD
ENDBRANCH  19  28
TORSDOF 6
ENDMDL
