MODEL 1
REMARK VINA RESULT:   -10.842      0.000      0.000
REMARK INTER + INTRA:         -15.295
REMARK INTER:                 -14.328
REMARK INTRA:                  -0.967
REMARK UNBOUND:                -0.967
REMARK  6 active torsions:
REMARK  status: ('A' for Active; 'I' for Inactive)
REMARK    1  A    between atoms: O_1  and  C_22 
REMARK    2  A    between atoms: C_6  and  C_13 
REMARK    3  A    between atoms: C_13  and  C_21 
REMARK    4  A    between atoms: C_21  and  C_24 
REMARK    5  A    between atoms: C_24  and  C_25 
REMARK    6  A    between atoms: C_25  and  C_26 
ROOT
ATOM      1  C   UNL d   1     112.562 149.452 202.575  0.00  0.00     0.000 C 
ATOM      2  C   UNL d   1     113.310 148.182 203.053  0.00  0.00     0.000 C 
ATOM      3  C   UNL d   1     114.184 148.451 204.279  0.00  0.00     0.005 C 
ATOM      4  C   UNL d   1     113.301 148.951 205.458  0.00  0.00     0.004 C 
ATOM      5  C   UNL d   1     111.907 148.937 201.253  0.00  0.00     0.000 C 
ATOM      6  C   UNL d   1     111.561 149.772 203.702  0.00  0.00     0.000 C 
ATOM      7  C   UNL d   1     114.187 149.351 206.705  0.00  0.00     0.015 C 
ATOM      8  C   UNL d   1     113.981 147.661 201.796  0.00  0.00     0.000 C 
ATOM      9  C   UNL d   1     112.270 150.040 205.041  0.00  0.00     0.000 C 
ATOM     10  C   UNL d   1     112.936 147.903 200.705  0.00  0.00     0.000 C 
ATOM     11  C   UNL d   1     114.979 147.207 204.701  0.00  0.00     0.025 C 
ATOM     12  C   UNL d   1     113.525 150.637 202.314  0.00  0.00     0.000 C 
ATOM     13  C   UNL d   1     115.300 148.319 206.934  0.00  0.00    -0.047 C 
ATOM     14  C   UNL d   1     113.273 149.389 207.965  0.00  0.00     0.006 C 
ATOM     15  C   UNL d   1     115.619 147.363 206.045  0.00  0.00    -0.035 C 
ATOM     16  C   UNL d   1     114.844 150.739 206.505  0.00  0.00     0.004 C 
ATOM     17  C   UNL d   1     116.046 148.408 208.252  0.00  0.00     0.051 C 
ATOM     18  C   UNL d   1     114.032 149.524 209.286  0.00  0.00     0.030 C 
ATOM     19  C   UNL d   1     115.089 148.434 209.442  0.00  0.00     0.115 C 
ENDROOT
BRANCH   5  20
ATOM     20  C   UNL d   1     111.468 149.956 200.146  0.00  0.00     0.000 C 
ATOM     21  C   UNL d   1     110.454 150.988 200.655  0.00  0.00     0.000 C 
BRANCH  20  22
ATOM     22  C   UNL d   1     110.899 149.178 198.924  0.00  0.00     0.000 C 
BRANCH  22  23
ATOM     23  C   UNL d   1     111.498 149.475 197.542  0.00  0.00     0.000 C 
BRANCH  23  24
ATOM     24  C   UNL d   1     112.977 149.116 197.351  0.00  0.00     0.000 C 
BRANCH  24  25
ATOM     25  C   UNL d   1     113.980 150.218 197.739  0.00  0.00     0.000 C 
ATOM     26  C   UNL d   1     115.337 150.020 197.058  0.00  0.00     0.000 C 
ATOM     27  C   UNL d   1     113.415 151.594 197.377  0.00  0.00     0.000 C 
ENDBRANCH  24  25
ENDBRANCH  23  24
ENDBRANCH  22  23
ENDBRANCH  20  22
ENDBRANCH   5  20
BRANCH  19  28
ATOM     28  O   UNL d   1     115.841 148.671 210.631  0.00  0.00    -0.385 OA
ATOM     29  H   UNL d   1     115.208 148.727 211.370  0.00  0.00     0.210 HD
ENDBRANCH  19  28
TORSDOF 6
ENDMDL
MODEL 2
REMARK VINA RESULT:   -10.484      3.126      8.844
REMARK INTER + INTRA:         -14.822
REMARK INTER:                 -13.240
REMARK INTRA:                  -1.582
REMARK UNBOUND:                -0.967
REMARK  6 active torsions:
REMARK  status: ('A' for Active; 'I' for Inactive)
REMARK    1  A    between atoms: O_1  and  C_22 
REMARK    2  A    between atoms: C_6  and  C_13 
REMARK    3  A    between atoms: C_13  and  C_21 
REMARK    4  A    between atoms: C_21  and  C_24 
REMARK    5  A    between atoms: C_24  and  C_25 
REMARK    6  A    between atoms: C_25  and  C_26 
ROOT
ATOM      1  C   UNL d   1     114.265 148.583 207.605  0.00  0.00     0.000 C 
ATOM      2  C   UNL d   1     115.047 147.817 206.507  0.00  0.00     0.000 C 
ATOM      3  C   UNL d   1     114.287 147.769 205.180  0.00  0.00     0.005 C 
ATOM      4  C   UNL d   1     114.040 149.215 204.662  0.00  0.00     0.004 C 
ATOM      5  C   UNL d   1     115.170 148.331 208.852  0.00  0.00     0.000 C 
ATOM      6  C   UNL d   1     114.234 150.047 207.122  0.00  0.00     0.000 C 
ATOM      7  C   UNL d   1     113.154 149.207 203.351  0.00  0.00     0.015 C 
ATOM      8  C   UNL d   1     115.409 146.502 207.172  0.00  0.00     0.000 C 
ATOM      9  C   UNL d   1     113.529 150.188 205.763  0.00  0.00     0.000 C 
ATOM     10  C   UNL d   1     115.759 146.909 208.605  0.00  0.00     0.000 C 
ATOM     11  C   UNL d   1     115.034 146.945 204.122  0.00  0.00     0.025 C 
ATOM     12  C   UNL d   1     112.836 148.020 207.808  0.00  0.00     0.000 C 
ATOM     13  C   UNL d   1     113.606 148.091 202.398  0.00  0.00    -0.047 C 
ATOM     14  C   UNL d   1     113.327 150.577 202.634  0.00  0.00     0.006 C 
ATOM     15  C   UNL d   1     114.456 147.114 202.751  0.00  0.00    -0.035 C 
ATOM     16  C   UNL d   1     111.658 148.986 203.686  0.00  0.00     0.004 C 
ATOM     17  C   UNL d   1     113.049 148.140 200.988  0.00  0.00     0.051 C 
ATOM     18  C   UNL d   1     112.723 150.630 201.230  0.00  0.00     0.030 C 
ATOM     19  C   UNL d   1     113.259 149.509 200.344  0.00  0.00     0.115 C 
ENDROOT
BRANCH   5  20
ATOM     20  C   UNL d   1     114.572 148.464 210.295  0.00  0.00     0.000 C 
ATOM     21  C   UNL d   1     114.936 149.793 210.970  0.00  0.00     0.000 C 
BRANCH  20  22
ATOM     22  C   UNL d   1     115.039 147.258 211.161  0.00  0.00     0.000 C 
BRANCH  22  23
ATOM     23  C   UNL d   1     113.979 146.236 211.599  0.00  0.00     0.000 C 
BRANCH  23  24
ATOM     24  C   UNL d   1     112.536 146.529 211.170  0.00  0.00     0.000 C 
BRANCH  24  25
ATOM     25  C   UNL d   1     111.834 145.396 210.399  0.00  0.00     0.000 C 
ATOM     26  C   UNL d   1     112.744 144.783 209.331  0.00  0.00     0.000 C 
ATOM     27  C   UNL d   1     111.369 144.308 211.370  0.00  0.00     0.000 C 
ENDBRANCH  24  25
ENDBRANCH  23  24
ENDBRANCH  22  23
ENDBRANCH  20  22
ENDBRANCH   5  20
BRANCH  19  28
ATOM     28  O   UNL d   1     112.583 149.534 199.088  0.00  0.00    -0.385 OA
ATOM     29  H   UNL d   1     113.259 149.636 198.394  0.00  0.00     0.210 HD
ENDBRANCH  19  28
TORSDOF 6
ENDMDL
MODEL 3
REMARK VINA RESULT:   -10.326      1.662      3.675
REMARK INTER + INTRA:         -14.613
REMARK INTER:                 -13.516
REMARK INTRA:                  -1.098
REMARK UNBOUND:                -0.967
REMARK  6 active torsions:
REMARK  status: ('A' for Active; 'I' for Inactive)
REMARK    1  A    between atoms: O_1  and  C_22 
REMARK    2  A    between atoms: C_6  and  C_13 
REMARK    3  A    between atoms: C_13  and  C_21 
REMARK    4  A    between atoms: C_21  and  C_24 
REMARK    5  A    between atoms: C_24  and  C_25 
REMARK    6  A    between atoms: C_25  and  C_26 
ROOT
ATOM      1  C   UNL d   1     113.703 148.779 204.604  0.00  0.00     0.000 C 
ATOM      2  C   UNL d   1     114.233 149.731 205.707  0.00  0.00     0.000 C 
ATOM      3  C   UNL d   1     113.905 149.228 207.114  0.00  0.00     0.005 C 
ATOM      4  C   UNL d   1     114.556 147.833 207.340  0.00  0.00     0.004 C 
ATOM      5  C   UNL d   1     114.020 149.605 203.316  0.00  0.00     0.000 C 
ATOM      6  C   UNL d   1     114.534 147.491 204.758  0.00  0.00     0.000 C 
ATOM      7  C   UNL d   1     114.139 147.230 208.742  0.00  0.00     0.015 C 
ATOM      8  C   UNL d   1     113.707 151.093 205.294  0.00  0.00     0.000 C 
ATOM      9  C   UNL d   1     114.354 146.854 206.147  0.00  0.00     0.000 C 
ATOM     10  C   UNL d   1     113.851 151.086 203.770  0.00  0.00     0.000 C 
ATOM     11  C   UNL d   1     114.367 150.212 208.197  0.00  0.00     0.025 C 
ATOM     12  C   UNL d   1     112.186 148.500 204.749  0.00  0.00     0.000 C 
ATOM     13  C   UNL d   1     114.184 148.310 209.832  0.00  0.00    -0.047 C 
ATOM     14  C   UNL d   1     115.150 146.105 209.111  0.00  0.00     0.006 C 
ATOM     15  C   UNL d   1     114.309 149.622 209.571  0.00  0.00    -0.035 C 
ATOM     16  C   UNL d   1     112.708 146.642 208.697  0.00  0.00     0.004 C 
ATOM     17  C   UNL d   1     114.093 147.827 211.267  0.00  0.00     0.051 C 
ATOM     18  C   UNL d   1     115.020 145.593 210.547  0.00  0.00     0.030 C 
ATOM     19  C   UNL d   1     115.115 146.731 211.560  0.00  0.00     0.115 C 
ENDROOT
BRANCH   5  20
ATOM     20  C   UNL d   1     113.239 149.316 201.988  0.00  0.00     0.000 C 
ATOM     21  C   UNL d   1     114.124 148.698 200.898  0.00  0.00     0.000 C 
BRANCH  20  22
ATOM     22  C   UNL d   1     112.576 150.631 201.482  0.00  0.00     0.000 C 
BRANCH  22  23
ATOM     23  C   UNL d   1     112.163 150.704 200.004  0.00  0.00     0.000 C 
BRANCH  23  24
ATOM     24  C   UNL d   1     110.946 149.864 199.597  0.00  0.00     0.000 C 
BRANCH  24  25
ATOM     25  C   UNL d   1     111.177 148.894 198.424  0.00  0.00     0.000 C 
ATOM     26  C   UNL d   1     112.456 149.226 197.651  0.00  0.00     0.000 C 
ATOM     27  C   UNL d   1     111.242 147.453 198.939  0.00  0.00     0.000 C 
ENDBRANCH  24  25
ENDBRANCH  23  24
ENDBRANCH  22  23
ENDBRANCH  20  22
ENDBRANCH   5  20
BRANCH  19  28
ATOM     28  O   UNL d   1     114.875 146.218 212.870  0.00  0.00    -0.385 OA
ATOM     29  H   UNL d   1     114.102 145.627 212.816  0.00  0.00     0.210 HD
ENDBRANCH  19  28
TORSDOF 6
ENDMDL
MODEL 4
REMARK VINA RESULT:    -8.668     38.497     42.969
REMARK INTER + INTRA:         -12.422
REMARK INTER:                 -10.695
REMARK INTRA:                  -1.727
REMARK UNBOUND:                -0.967
REMARK  6 active torsions:
REMARK  status: ('A' for Active; 'I' for Inactive)
REMARK    1  A    between atoms: O_1  and  C_22 
REMARK    2  A    between atoms: C_6  and  C_13 
REMARK    3  A    between atoms: C_13  and  C_21 
REMARK    4  A    between atoms: C_21  and  C_24 
REMARK    5  A    between atoms: C_24  and  C_25 
REMARK    6  A    between atoms: C_25  and  C_26 
ROOT
ATOM      1  C   UNL d   1     126.797 125.697 171.493  0.00  0.00     0.000 C 
ATOM      2  C   UNL d   1     128.251 125.979 171.036  0.00  0.00     0.000 C 
ATOM      3  C   UNL d   1     129.145 124.742 171.150  0.00  0.00     0.005 C 
ATOM      4  C   UNL d   1     128.582 123.600 170.257  0.00  0.00     0.004 C 
ATOM      5  C   UNL d   1     126.179 127.130 171.433  0.00  0.00     0.000 C 
ATOM      6  C   UNL d   1     126.235 124.714 170.447  0.00  0.00     0.000 C 
ATOM      7  C   UNL d   1     129.415 122.268 170.442  0.00  0.00     0.015 C 
ATOM      8  C   UNL d   1     128.643 127.219 171.816  0.00  0.00     0.000 C 
ATOM      9  C   UNL d   1     127.044 123.406 170.396  0.00  0.00     0.000 C 
ATOM     10  C   UNL d   1     127.368 128.066 171.808  0.00  0.00     0.000 C 
ATOM     11  C   UNL d   1     130.600 125.049 170.766  0.00  0.00     0.025 C 
ATOM     12  C   UNL d   1     126.737 125.104 172.923  0.00  0.00     0.000 C 
ATOM     13  C   UNL d   1     130.920 122.571 170.483  0.00  0.00    -0.047 C 
ATOM     14  C   UNL d   1     129.126 121.336 169.229  0.00  0.00     0.006 C 
ATOM     15  C   UNL d   1     131.423 123.810 170.603  0.00  0.00    -0.035 C 
ATOM     16  C   UNL d   1     129.028 121.541 171.753  0.00  0.00     0.004 C 
ATOM     17  C   UNL d   1     131.852 121.380 170.366  0.00  0.00     0.051 C 
ATOM     18  C   UNL d   1     130.043 120.115 169.144  0.00  0.00     0.030 C 
ATOM     19  C   UNL d   1     131.515 120.516 169.153  0.00  0.00     0.115 C 
ENDROOT
BRANCH   5  20
ATOM     20  C   UNL d   1     124.896 127.467 172.269  0.00  0.00     0.000 C 
ATOM     21  C   UNL d   1     123.597 127.173 171.509  0.00  0.00     0.000 C 
BRANCH  20  22
ATOM     22  C   UNL d   1     124.948 128.955 172.719  0.00  0.00     0.000 C 
BRANCH  22  23
ATOM     23  C   UNL d   1     124.801 129.257 174.218  0.00  0.00     0.000 C 
BRANCH  23  24
ATOM     24  C   UNL d   1     126.104 129.444 175.005  0.00  0.00     0.000 C 
BRANCH  24  25
ATOM     25  C   UNL d   1     126.517 128.255 175.891  0.00  0.00     0.000 C 
ATOM     26  C   UNL d   1     125.444 127.163 175.918  0.00  0.00     0.000 C 
ATOM     27  C   UNL d   1     127.842 127.667 175.400  0.00  0.00     0.000 C 
ENDBRANCH  24  25
ENDBRANCH  23  24
ENDBRANCH  22  23
ENDBRANCH  20  22
ENDBRANCH   5  20
BRANCH  19  28
ATOM     28  O   UNL d   1     132.325 119.342 169.187  0.00  0.00    -0.385 OA
ATOM     29  H   UNL d   1     131.733 118.583 169.346  0.00  0.00     0.210 HD
ENDBRANCH  19  28
TORSDOF 6
ENDMDL
MODEL 5
REMARK VINA RESULT:    -8.535     38.987     43.331
REMARK INTER + INTRA:         -12.246
REMARK INTER:                 -10.749
REMARK INTRA:                  -1.497
REMARK UNBOUND:                -0.967
REMARK  6 active torsions:
REMARK  status: ('A' for Active; 'I' for Inactive)
REMARK    1  A    between atoms: O_1  and  C_22 
REMARK    2  A    between atoms: C_6  and  C_13 
REMARK    3  A    between atoms: C_13  and  C_21 
REMARK    4  A    between atoms: C_21  and  C_24 
REMARK    5  A    between atoms: C_24  and  C_25 
REMARK    6  A    between atoms: C_25  and  C_26 
ROOT
ATOM      1  C   UNL d   1     126.495 124.739 170.986  0.00  0.00     0.000 C 
ATOM      2  C   UNL d   1     126.964 123.599 171.925  0.00  0.00     0.000 C 
ATOM      3  C   UNL d   1     128.066 122.745 171.296  0.00  0.00     0.005 C 
ATOM      4  C   UNL d   1     129.303 123.632 170.975  0.00  0.00     0.004 C 
ATOM      5  C   UNL d   1     125.289 125.318 171.793  0.00  0.00     0.000 C 
ATOM      6  C   UNL d   1     127.705 125.687 170.875  0.00  0.00     0.000 C 
ATOM      7  C   UNL d   1     130.417 122.805 170.214  0.00  0.00     0.015 C 
ATOM      8  C   UNL d   1     125.675 122.913 172.337  0.00  0.00     0.000 C 
ATOM      9  C   UNL d   1     128.937 124.979 170.286  0.00  0.00     0.000 C 
ATOM     10  C   UNL d   1     124.694 124.074 172.520  0.00  0.00     0.000 C 
ATOM     11  C   UNL d   1     128.473 121.574 172.201  0.00  0.00     0.025 C 
ATOM     12  C   UNL d   1     126.056 124.211 169.597  0.00  0.00     0.000 C 
ATOM     13  C   UNL d   1     130.583 121.414 170.843  0.00  0.00    -0.047 C 
ATOM     14  C   UNL d   1     131.765 123.572 170.335  0.00  0.00     0.006 C 
ATOM     15  C   UNL d   1     129.725 120.898 171.738  0.00  0.00    -0.035 C 
ATOM     16  C   UNL d   1     130.059 122.624 168.719  0.00  0.00     0.004 C 
ATOM     17  C   UNL d   1     131.801 120.619 170.413  0.00  0.00     0.051 C 
ATOM     18  C   UNL d   1     132.983 122.778 169.858  0.00  0.00     0.030 C 
ATOM     19  C   UNL d   1     133.087 121.429 170.564  0.00  0.00     0.115 C 
ENDROOT
BRANCH   5  20
ATOM     20  C   UNL d   1     124.177 126.143 171.058  0.00  0.00     0.000 C 
ATOM     21  C   UNL d   1     124.713 127.433 170.425  0.00  0.00     0.000 C 
BRANCH  20  22
ATOM     22  C   UNL d   1     123.022 126.454 172.054  0.00  0.00     0.000 C 
BRANCH  22  23
ATOM     23  C   UNL d   1     123.228 127.600 173.056  0.00  0.00     0.000 C 
BRANCH  23  24
ATOM     24  C   UNL d   1     123.718 127.199 174.453  0.00  0.00     0.000 C 
BRANCH  24  25
ATOM     25  C   UNL d   1     125.073 127.795 174.874  0.00  0.00     0.000 C 
ATOM     26  C   UNL d   1     126.139 126.712 175.064  0.00  0.00     0.000 C 
ATOM     27  C   UNL d   1     125.548 128.810 173.831  0.00  0.00     0.000 C 
ENDBRANCH  24  25
ENDBRANCH  23  24
ENDBRANCH  22  23
ENDBRANCH  20  22
ENDBRANCH   5  20
BRANCH  19  28
ATOM     28  O   UNL d   1     134.167 120.685 170.004  0.00  0.00    -0.385 OA
ATOM     29  H   UNL d   1     134.115 119.780 170.363  0.00  0.00     0.210 HD
ENDBRANCH  19  28
TORSDOF 6
ENDMDL
MODEL 6
REMARK VINA RESULT:    -8.413      1.458      2.980
REMARK INTER + INTRA:         -12.085
REMARK INTER:                 -11.318
REMARK INTRA:                  -0.766
REMARK UNBOUND:                -0.967
REMARK  6 active torsions:
REMARK  status: ('A' for Active; 'I' for Inactive)
REMARK    1  A    between atoms: O_1  and  C_22 
REMARK    2  A    between atoms: C_6  and  C_13 
REMARK    3  A    between atoms: C_13  and  C_21 
REMARK    4  A    between atoms: C_21  and  C_24 
REMARK    5  A    between atoms: C_24  and  C_25 
REMARK    6  A    between atoms: C_25  and  C_26 
ROOT
ATOM      1  C   UNL d   1     112.956 148.772 202.694  0.00  0.00     0.000 C 
ATOM      2  C   UNL d   1     113.709 149.977 203.311  0.00  0.00     0.000 C 
ATOM      3  C   UNL d   1     113.694 149.950 204.840  0.00  0.00     0.005 C 
ATOM      4  C   UNL d   1     114.381 148.651 205.352  0.00  0.00     0.004 C 
ATOM      5  C   UNL d   1     112.985 149.142 201.177  0.00  0.00     0.000 C 
ATOM      6  C   UNL d   1     113.802 147.540 203.068  0.00  0.00     0.000 C 
ATOM      7  C   UNL d   1     114.278 148.534 206.926  0.00  0.00     0.015 C 
ATOM      8  C   UNL d   1     113.105 151.180 202.611  0.00  0.00     0.000 C 
ATOM      9  C   UNL d   1     113.927 147.371 204.592  0.00  0.00     0.000 C 
ATOM     10  C   UNL d   1     112.916 150.699 201.170  0.00  0.00     0.000 C 
ATOM     11  C   UNL d   1     114.377 151.186 205.444  0.00  0.00     0.025 C 
ATOM     12  C   UNL d   1     111.506 148.651 203.228  0.00  0.00     0.000 C 
ATOM     13  C   UNL d   1     114.555 149.889 207.591  0.00  0.00    -0.047 C 
ATOM     14  C   UNL d   1     115.345 147.510 207.412  0.00  0.00     0.006 C 
ATOM     15  C   UNL d   1     114.619 151.047 206.914  0.00  0.00    -0.035 C 
ATOM     16  C   UNL d   1     112.871 148.056 207.363  0.00  0.00     0.004 C 
ATOM     17  C   UNL d   1     114.777 149.874 209.091  0.00  0.00     0.051 C 
ATOM     18  C   UNL d   1     115.530 147.471 208.930  0.00  0.00     0.030 C 
ATOM     19  C   UNL d   1     115.839 148.854 209.495  0.00  0.00     0.115 C 
ENDROOT
BRANCH   5  20
ATOM     20  C   UNL d   1     111.936 148.514 200.195  0.00  0.00     0.000 C 
ATOM     21  C   UNL d   1     112.375 147.151 199.647  0.00  0.00     0.000 C 
BRANCH  20  22
ATOM     22  C   UNL d   1     111.653 149.512 199.035  0.00  0.00     0.000 C 
BRANCH  22  23
ATOM     23  C   UNL d   1     111.944 149.046 197.601  0.00  0.00     0.000 C 
BRANCH  23  24
ATOM     24  C   UNL d   1     111.154 149.744 196.487  0.00  0.00     0.000 C 
BRANCH  24  25
ATOM     25  C   UNL d   1     109.986 148.933 195.898  0.00  0.00     0.000 C 
ATOM     26  C   UNL d   1     108.752 148.965 196.806  0.00  0.00     0.000 C 
ATOM     27  C   UNL d   1     109.621 149.467 194.510  0.00  0.00     0.000 C 
ENDBRANCH  24  25
ENDBRANCH  23  24
ENDBRANCH  22  23
ENDBRANCH  20  22
ENDBRANCH   5  20
BRANCH  19  28
ATOM     28  O   UNL d   1     115.889 148.783 210.919  0.00  0.00    -0.385 OA
ATOM     29  H   UNL d   1     115.958 147.842 211.162  0.00  0.00     0.210 HD
ENDBRANCH  19  28
TORSDOF 6
ENDMDL
MODEL 7
REMARK VINA RESULT:    -8.373     14.673     17.098
REMARK INTER + INTRA:         -12.032
REMARK INTER:                 -10.541
REMARK INTRA:                  -1.490
REMARK UNBOUND:                -0.967
REMARK  6 active torsions:
REMARK  status: ('A' for Active; 'I' for Inactive)
REMARK    1  A    between atoms: O_1  and  C_22 
REMARK    2  A    between atoms: C_6  and  C_13 
REMARK    3  A    between atoms: C_13  and  C_21 
REMARK    4  A    between atoms: C_21  and  C_24 
REMARK    5  A    between atoms: C_24  and  C_25 
REMARK    6  A    between atoms: C_25  and  C_26 
ROOT
ATOM      1  C   UNL d   1     126.878 141.422 198.254  0.00  0.00     0.000 C 
ATOM      2  C   UNL d   1     125.951 140.698 197.244  0.00  0.00     0.000 C 
ATOM      3  C   UNL d   1     124.990 139.727 197.932  0.00  0.00     0.005 C 
ATOM      4  C   UNL d   1     124.084 140.501 198.932  0.00  0.00     0.004 C 
ATOM      5  C   UNL d   1     127.834 142.192 197.289  0.00  0.00     0.000 C 
ATOM      6  C   UNL d   1     125.939 142.325 199.078  0.00  0.00     0.000 C 
ATOM      7  C   UNL d   1     123.158 139.511 199.747  0.00  0.00     0.015 C 
ATOM      8  C   UNL d   1     126.910 140.142 196.208  0.00  0.00     0.000 C 
ATOM      9  C   UNL d   1     124.866 141.510 199.822  0.00  0.00     0.000 C 
ATOM     10  C   UNL d   1     127.953 141.251 196.052  0.00  0.00     0.000 C 
ATOM     11  C   UNL d   1     124.128 138.959 196.919  0.00  0.00     0.025 C 
ATOM     12  C   UNL d   1     127.651 140.429 199.158  0.00  0.00     0.000 C 
ATOM     13  C   UNL d   1     122.574 138.431 198.824  0.00  0.00    -0.047 C 
ATOM     14  C   UNL d   1     121.986 140.330 200.361  0.00  0.00     0.006 C 
ATOM     15  C   UNL d   1     123.002 138.219 197.569  0.00  0.00    -0.035 C 
ATOM     16  C   UNL d   1     123.946 138.810 200.880  0.00  0.00     0.004 C 
ATOM     17  C   UNL d   1     121.449 137.590 199.396  0.00  0.00     0.051 C 
ATOM     18  C   UNL d   1     120.877 139.473 200.974  0.00  0.00     0.030 C 
ATOM     19  C   UNL d   1     120.333 138.457 199.974  0.00  0.00     0.115 C 
ENDROOT
BRANCH   5  20
ATOM     20  C   UNL d   1     129.242 142.664 197.791  0.00  0.00     0.000 C 
ATOM     21  C   UNL d   1     129.474 144.166 197.586  0.00  0.00     0.000 C 
BRANCH  20  22
ATOM     22  C   UNL d   1     130.349 141.832 197.081  0.00  0.00     0.000 C 
BRANCH  22  23
ATOM     23  C   UNL d   1     131.621 141.502 197.878  0.00  0.00     0.000 C 
BRANCH  23  24
ATOM     24  C   UNL d   1     131.420 141.115 199.348  0.00  0.00     0.000 C 
BRANCH  24  25
ATOM     25  C   UNL d   1     131.875 142.167 200.376  0.00  0.00     0.000 C 
ATOM     26  C   UNL d   1     132.560 143.362 199.705  0.00  0.00     0.000 C 
ATOM     27  C   UNL d   1     130.678 142.652 201.198  0.00  0.00     0.000 C 
ENDBRANCH  24  25
ENDBRANCH  23  24
ENDBRANCH  22  23
ENDBRANCH  20  22
ENDBRANCH   5  20
BRANCH  19  28
ATOM     28  O   UNL d   1     119.386 137.612 200.626  0.00  0.00    -0.385 OA
ATOM     29  H   UNL d   1     118.837 138.177 201.200  0.00  0.00     0.210 HD
ENDBRANCH  19  28
TORSDOF 6
ENDMDL
MODEL 8
REMARK VINA RESULT:    -8.353     38.189     42.591
REMARK INTER + INTRA:         -12.005
REMARK INTER:                 -10.318
REMARK INTRA:                  -1.686
REMARK UNBOUND:                -0.967
REMARK  6 active torsions:
REMARK  status: ('A' for Active; 'I' for Inactive)
REMARK    1  A    between atoms: O_1  and  C_22 
REMARK    2  A    between atoms: C_6  and  C_13 
REMARK    3  A    between atoms: C_13  and  C_21 
REMARK    4  A    between atoms: C_21  and  C_24 
REMARK    5  A    between atoms: C_24  and  C_25 
REMARK    6  A    between atoms: C_25  and  C_26 
ROOT
ATOM      1  C   UNL d   1     128.501 126.427 172.993  0.00  0.00     0.000 C 
ATOM      2  C   UNL d   1     128.612 125.016 173.627  0.00  0.00     0.000 C 
ATOM      3  C   UNL d   1     128.945 123.940 172.592  0.00  0.00     0.005 C 
ATOM      4  C   UNL d   1     130.308 124.263 171.915  0.00  0.00     0.004 C 
ATOM      5  C   UNL d   1     128.000 127.267 174.211  0.00  0.00     0.000 C 
ATOM      6  C   UNL d   1     129.929 126.766 172.525  0.00  0.00     0.000 C 
ATOM      7  C   UNL d   1     130.627 123.233 170.756  0.00  0.00     0.015 C 
ATOM      8  C   UNL d   1     127.327 124.873 174.420  0.00  0.00     0.000 C 
ATOM      9  C   UNL d   1     130.451 125.753 171.492  0.00  0.00     0.000 C 
ATOM     10  C   UNL d   1     127.115 126.267 175.016  0.00  0.00     0.000 C 
ATOM     11  C   UNL d   1     128.980 122.537 173.215  0.00  0.00     0.025 C 
ATOM     12  C   UNL d   1     127.493 126.463 171.816  0.00  0.00     0.000 C 
ATOM     13  C   UNL d   1     130.278 121.803 171.190  0.00  0.00    -0.047 C 
ATOM     14  C   UNL d   1     132.150 123.305 170.443  0.00  0.00     0.006 C 
ATOM     15  C   UNL d   1     129.569 121.515 172.294  0.00  0.00    -0.035 C 
ATOM     16  C   UNL d   1     129.822 123.563 169.475  0.00  0.00     0.004 C 
ATOM     17  C   UNL d   1     130.793 120.684 170.305  0.00  0.00     0.051 C 
ATOM     18  C   UNL d   1     132.650 122.197 169.514  0.00  0.00     0.030 C 
ATOM     19  C   UNL d   1     132.292 120.812 170.046  0.00  0.00     0.115 C 
ENDROOT
BRANCH   5  20
ATOM     20  C   UNL d   1     127.261 128.629 173.974  0.00  0.00     0.000 C 
ATOM     21  C   UNL d   1     128.182 129.843 174.144  0.00  0.00     0.000 C 
BRANCH  20  22
ATOM     22  C   UNL d   1     126.036 128.725 174.930  0.00  0.00     0.000 C 
BRANCH  22  23
ATOM     23  C   UNL d   1     124.644 128.874 174.299  0.00  0.00     0.000 C 
BRANCH  23  24
ATOM     24  C   UNL d   1     124.539 128.560 172.801  0.00  0.00     0.000 C 
BRANCH  24  25
ATOM     25  C   UNL d   1     123.597 127.400 172.434  0.00  0.00     0.000 C 
ATOM     26  C   UNL d   1     123.756 126.977 170.970  0.00  0.00     0.000 C 
ATOM     27  C   UNL d   1     123.855 126.202 173.350  0.00  0.00     0.000 C 
ENDBRANCH  24  25
ENDBRANCH  23  24
ENDBRANCH  22  23
ENDBRANCH  20  22
ENDBRANCH   5  20
BRANCH  19  28
ATOM     28  O   UNL d   1     132.679 119.825 169.092  0.00  0.00    -0.385 OA
ATOM     29  H   UNL d   1     132.026 119.103 169.137  0.00  0.00     0.210 HD
ENDBRANCH  19  28
TORSDOF 6
ENDMDL
MODEL 9
REMARK VINA RESULT:    -8.225     38.874     43.302
REMARK INTER + INTRA:         -11.836
REMARK INTER:                 -10.545
REMARK INTRA:                  -1.291
REMARK UNBOUND:                -0.967
REMARK  6 active torsions:
REMARK  status: ('A' for Active; 'I' for Inactive)
REMARK    1  A    between atoms: O_1  and  C_22 
REMARK    2  A    between atoms: C_6  and  C_13 
REMARK    3  A    between atoms: C_13  and  C_21 
REMARK    4  A    between atoms: C_21  and  C_24 
REMARK    5  A    between atoms: C_24  and  C_25 
REMARK    6  A    between atoms: C_25  and  C_26 
ROOT
ATOM      1  C   UNL d   1     127.735 123.382 171.498  0.00  0.00     0.000 C 
ATOM      2  C   UNL d   1     128.325 124.747 171.936  0.00  0.00     0.000 C 
ATOM      3  C   UNL d   1     127.484 125.926 171.444  0.00  0.00     0.005 C 
ATOM      4  C   UNL d   1     126.044 125.826 172.023  0.00  0.00     0.004 C 
ATOM      5  C   UNL d   1     128.854 122.402 171.977  0.00  0.00     0.000 C 
ATOM      6  C   UNL d   1     126.405 123.258 172.267  0.00  0.00     0.000 C 
ATOM      7  C   UNL d   1     125.114 126.965 171.439  0.00  0.00     0.015 C 
ATOM      8  C   UNL d   1     129.776 124.672 171.501  0.00  0.00     0.000 C 
ATOM      9  C   UNL d   1     125.433 124.398 171.919  0.00  0.00     0.000 C 
ATOM     10  C   UNL d   1     130.168 123.224 171.806  0.00  0.00     0.000 C 
ATOM     11  C   UNL d   1     128.114 127.275 171.817  0.00  0.00     0.025 C 
ATOM     12  C   UNL d   1     127.518 123.301 169.966  0.00  0.00     0.000 C 
ATOM     13  C   UNL d   1     125.859 128.307 171.401  0.00  0.00    -0.047 C 
ATOM     14  C   UNL d   1     123.873 127.108 172.368  0.00  0.00     0.006 C 
ATOM     15  C   UNL d   1     127.183 128.425 171.594  0.00  0.00    -0.035 C 
ATOM     16  C   UNL d   1     124.645 126.627 170.003  0.00  0.00     0.004 C 
ATOM     17  C   UNL d   1     125.016 129.541 171.141  0.00  0.00     0.051 C 
ATOM     18  C   UNL d   1     123.005 128.332 172.070  0.00  0.00     0.030 C 
ATOM     19  C   UNL d   1     123.823 129.621 172.091  0.00  0.00     0.115 C 
ENDROOT
BRANCH   5  20
ATOM     20  C   UNL d   1     128.978 120.978 171.334  0.00  0.00     0.000 C 
ATOM     21  C   UNL d   1     128.316 119.883 172.180  0.00  0.00     0.000 C 
BRANCH  20  22
ATOM     22  C   UNL d   1     130.479 120.652 171.085  0.00  0.00     0.000 C 
BRANCH  22  23
ATOM     23  C   UNL d   1     130.900 120.245 169.665  0.00  0.00     0.000 C 
BRANCH  23  24
ATOM     24  C   UNL d   1     132.378 120.446 169.311  0.00  0.00     0.000 C 
BRANCH  24  25
ATOM     25  C   UNL d   1     132.731 121.812 168.696  0.00  0.00     0.000 C 
ATOM     26  C   UNL d   1     131.503 122.501 168.093  0.00  0.00     0.000 C 
ATOM     27  C   UNL d   1     133.363 122.718 169.756  0.00  0.00     0.000 C 
ENDBRANCH  24  25
ENDBRANCH  23  24
ENDBRANCH  22  23
ENDBRANCH  20  22
ENDBRANCH   5  20
BRANCH  19  28
ATOM     28  O   UNL d   1     122.995 130.713 171.697  0.00  0.00    -0.385 OA
ATOM     29  H   UNL d   1     122.433 130.404 170.962  0.00  0.00     0.210 HD
ENDBRANCH  19  28
TORSDOF 6
ENDMDL
MODEL 10
REMARK VINA RESULT:    -8.098     15.601     17.670
REMARK INTER + INTRA:         -11.669
REMARK INTER:                 -10.200
REMARK INTRA:                  -1.468
REMARK UNBOUND:                -0.967
REMARK  6 active torsions:
REMARK  status: ('A' for Active; 'I' for Inactive)
REMARK    1  A    between atoms: O_1  and  C_22 
REMARK    2  A    between atoms: C_6  and  C_13 
REMARK    3  A    between atoms: C_13  and  C_21 
REMARK    4  A    between atoms: C_21  and  C_24 
REMARK    5  A    between atoms: C_24  and  C_25 
REMARK    6  A    between atoms: C_25  and  C_26 
ROOT
ATOM      1  C   UNL d   1     127.962 142.425 198.133  0.00  0.00     0.000 C 
ATOM      2  C   UNL d   1     127.861 143.042 199.552  0.00  0.00     0.000 C 
ATOM      3  C   UNL d   1     129.075 142.706 200.418  0.00  0.00     0.005 C 
ATOM      4  C   UNL d   1     130.368 143.261 199.753  0.00  0.00     0.004 C 
ATOM      5  C   UNL d   1     126.555 142.775 197.551  0.00  0.00     0.000 C 
ATOM      6  C   UNL d   1     129.135 143.164 197.461  0.00  0.00     0.000 C 
ATOM      7  C   UNL d   1     131.656 142.829 200.563  0.00  0.00     0.015 C 
ATOM      8  C   UNL d   1     126.491 142.607 200.039  0.00  0.00     0.000 C 
ATOM      9  C   UNL d   1     130.454 142.966 198.227  0.00  0.00     0.000 C 
ATOM     10  C   UNL d   1     125.613 142.721 198.791  0.00  0.00     0.000 C 
ATOM     11  C   UNL d   1     128.933 143.258 201.844  0.00  0.00     0.025 C 
ATOM     12  C   UNL d   1     128.202 140.895 198.175  0.00  0.00     0.000 C 
ATOM     13  C   UNL d   1     131.421 142.972 202.074  0.00  0.00    -0.047 C 
ATOM     14  C   UNL d   1     132.831 143.763 200.150  0.00  0.00     0.006 C 
ATOM     15  C   UNL d   1     130.211 143.185 202.618  0.00  0.00    -0.035 C 
ATOM     16  C   UNL d   1     132.039 141.358 200.267  0.00  0.00     0.004 C 
ATOM     17  C   UNL d   1     132.646 142.874 202.961  0.00  0.00     0.051 C 
ATOM     18  C   UNL d   1     134.078 143.625 201.024  0.00  0.00     0.030 C 
ATOM     19  C   UNL d   1     133.754 143.820 202.503  0.00  0.00     0.115 C 
ENDROOT
BRANCH   5  20
ATOM     20  C   UNL d   1     125.976 141.950 196.350  0.00  0.00     0.000 C 
ATOM     21  C   UNL d   1     125.707 142.811 195.110  0.00  0.00     0.000 C 
BRANCH  20  22
ATOM     22  C   UNL d   1     124.681 141.216 196.805  0.00  0.00     0.000 C 
BRANCH  22  23
ATOM     23  C   UNL d   1     124.779 139.715 197.117  0.00  0.00     0.000 C 
BRANCH  23  24
ATOM     24  C   UNL d   1     123.563 139.084 197.807  0.00  0.00     0.000 C 
BRANCH  24  25
ATOM     25  C   UNL d   1     123.551 139.180 199.343  0.00  0.00     0.000 C 
ATOM     26  C   UNL d   1     124.968 139.207 199.924  0.00  0.00     0.000 C 
ATOM     27  C   UNL d   1     122.786 140.429 199.786  0.00  0.00     0.000 C 
ENDBRANCH  24  25
ENDBRANCH  23  24
ENDBRANCH  22  23
ENDBRANCH  20  22
ENDBRANCH   5  20
BRANCH  19  28
ATOM     28  O   UNL d   1     134.923 143.570 203.280  0.00  0.00    -0.385 OA
ATOM     29  H   UNL d   1     135.584 143.162 202.692  0.00  0.00     0.210 HD
ENDBRANCH  19  28
TORSDOF 6
ENDMDL
MODEL 11
REMARK VINA RESULT:    -7.983     14.392     16.708
REMARK INTER + INTRA:         -11.517
REMARK INTER:                  -9.970
REMARK INTRA:                  -1.547
REMARK UNBOUND:                -0.967
REMARK  6 active torsions:
REMARK  status: ('A' for Active; 'I' for Inactive)
REMARK    1  A    between atoms: O_1  and  C_22 
REMARK    2  A    between atoms: C_6  and  C_13 
REMARK    3  A    between atoms: C_13  and  C_21 
REMARK    4  A    between atoms: C_21  and  C_24 
REMARK    5  A    between atoms: C_24  and  C_25 
REMARK    6  A    between atoms: C_25  and  C_26 
ROOT
ATOM      1  C   UNL d   1     125.050 139.074 199.806  0.00  0.00     0.000 C 
ATOM      2  C   UNL d   1     125.465 139.891 198.556  0.00  0.00     0.000 C 
ATOM      3  C   UNL d   1     126.556 140.917 198.869  0.00  0.00     0.005 C 
ATOM      4  C   UNL d   1     127.825 140.191 199.403  0.00  0.00     0.004 C 
ATOM      5  C   UNL d   1     123.843 138.256 199.245  0.00  0.00     0.000 C 
ATOM      6  C   UNL d   1     126.288 138.228 200.158  0.00  0.00     0.000 C 
ATOM      7  C   UNL d   1     128.931 141.230 199.848  0.00  0.00     0.015 C 
ATOM      8  C   UNL d   1     124.147 140.396 197.999  0.00  0.00     0.000 C 
ATOM      9  C   UNL d   1     127.513 139.104 200.472  0.00  0.00     0.000 C 
ATOM     10  C   UNL d   1     123.196 139.214 198.199  0.00  0.00     0.000 C 
ATOM     11  C   UNL d   1     126.908 141.772 197.644  0.00  0.00     0.025 C 
ATOM     12  C   UNL d   1     124.628 139.984 200.988  0.00  0.00     0.000 C 
ATOM     13  C   UNL d   1     129.043 142.373 198.829  0.00  0.00    -0.047 C 
ATOM     14  C   UNL d   1     130.298 140.489 199.921  0.00  0.00     0.006 C 
ATOM     15  C   UNL d   1     128.151 142.581 197.847  0.00  0.00    -0.035 C 
ATOM     16  C   UNL d   1     128.603 141.842 201.232  0.00  0.00     0.004 C 
ATOM     17  C   UNL d   1     130.248 143.285 198.965  0.00  0.00     0.051 C 
ATOM     18  C   UNL d   1     131.503 141.414 200.103  0.00  0.00     0.030 C 
ATOM     19  C   UNL d   1     131.552 142.493 199.024  0.00  0.00     0.115 C 
ENDROOT
BRANCH   5  20
ATOM     20  C   UNL d   1     122.772 137.665 200.226  0.00  0.00     0.000 C 
ATOM     21  C   UNL d   1     123.029 136.193 200.571  0.00  0.00     0.000 C 
BRANCH  20  22
ATOM     22  C   UNL d   1     121.353 137.850 199.613  0.00  0.00     0.000 C 
BRANCH  22  23
ATOM     23  C   UNL d   1     120.264 138.470 200.501  0.00  0.00     0.000 C 
BRANCH  23  24
ATOM     24  C   UNL d   1     120.749 139.371 201.643  0.00  0.00     0.000 C 
BRANCH  24  25
ATOM     25  C   UNL d   1     121.068 140.824 201.248  0.00  0.00     0.000 C 
ATOM     26  C   UNL d   1     120.276 141.268 200.015  0.00  0.00     0.000 C 
ATOM     27  C   UNL d   1     120.773 141.765 202.419  0.00  0.00     0.000 C 
ENDBRANCH  24  25
ENDBRANCH  23  24
ENDBRANCH  22  23
ENDBRANCH  20  22
ENDBRANCH   5  20
BRANCH  19  28
ATOM     28  O   UNL d   1     132.623 143.392 199.303  0.00  0.00    -0.385 OA
ATOM     29  H   UNL d   1     133.366 142.864 199.650  0.00  0.00     0.210 HD
ENDBRANCH  19  28
TORSDOF 6
ENDMDL
MODEL 12
REMARK VINA RESULT:    -7.981     38.321     42.724
REMARK INTER + INTRA:         -11.514
REMARK INTER:                 -10.283
REMARK INTRA:                  -1.231
REMARK UNBOUND:                -0.967
REMARK  6 active torsions:
REMARK  status: ('A' for Active; 'I' for Inactive)
REMARK    1  A    between atoms: O_1  and  C_22 
REMARK    2  A    between atoms: C_6  and  C_13 
REMARK    3  A    between atoms: C_13  and  C_21 
REMARK    4  A    between atoms: C_21  and  C_24 
REMARK    5  A    between atoms: C_24  and  C_25 
REMARK    6  A    between atoms: C_25  and  C_26 
ROOT
ATOM      1  C   UNL d   1     127.186 125.642 173.015  0.00  0.00     0.000 C 
ATOM      2  C   UNL d   1     128.446 126.085 172.229  0.00  0.00     0.000 C 
ATOM      3  C   UNL d   1     129.404 124.922 171.965  0.00  0.00     0.005 C 
ATOM      4  C   UNL d   1     128.684 123.826 171.126  0.00  0.00     0.004 C 
ATOM      5  C   UNL d   1     126.497 127.018 173.282  0.00  0.00     0.000 C 
ATOM      6  C   UNL d   1     126.418 124.719 172.048  0.00  0.00     0.000 C 
ATOM      7  C   UNL d   1     129.608 122.556 170.935  0.00  0.00     0.015 C 
ATOM      8  C   UNL d   1     128.965 127.274 173.015  0.00  0.00     0.000 C 
ATOM      9  C   UNL d   1     127.253 123.494 171.639  0.00  0.00     0.000 C 
ATOM     10  C   UNL d   1     127.690 128.009 173.436  0.00  0.00     0.000 C 
ATOM     11  C   UNL d   1     130.683 125.382 171.252  0.00  0.00     0.025 C 
ATOM     12  C   UNL d   1     127.544 124.913 174.335  0.00  0.00     0.000 C 
ATOM     13  C   UNL d   1     131.050 122.977 170.616  0.00  0.00    -0.047 C 
ATOM     14  C   UNL d   1     129.055 121.723 169.742  0.00  0.00     0.006 C 
ATOM     15  C   UNL d   1     131.499 124.237 170.740  0.00  0.00    -0.035 C 
ATOM     16  C   UNL d   1     129.628 121.679 172.211  0.00  0.00     0.004 C 
ATOM     17  C   UNL d   1     131.980 121.884 170.125  0.00  0.00     0.051 C 
ATOM     18  C   UNL d   1     129.981 120.595 169.283  0.00  0.00     0.030 C 
ATOM     19  C   UNL d   1     131.378 121.114 168.952  0.00  0.00     0.115 C 
ENDROOT
BRANCH   5  20
ATOM     20  C   UNL d   1     125.469 127.166 174.456  0.00  0.00     0.000 C 
ATOM     21  C   UNL d   1     124.355 126.114 174.408  0.00  0.00     0.000 C 
BRANCH  20  22
ATOM     22  C   UNL d   1     124.872 128.604 174.441  0.00  0.00     0.000 C 
BRANCH  22  23
ATOM     23  C   UNL d   1     124.722 129.305 173.083  0.00  0.00     0.000 C 
BRANCH  23  24
ATOM     24  C   UNL d   1     123.565 128.827 172.196  0.00  0.00     0.000 C 
BRANCH  24  25
ATOM     25  C   UNL d   1     123.967 128.336 170.794  0.00  0.00     0.000 C 
ATOM     26  C   UNL d   1     125.412 128.710 170.450  0.00  0.00     0.000 C 
ATOM     27  C   UNL d   1     123.789 126.819 170.695  0.00  0.00     0.000 C 
ENDBRANCH  24  25
ENDBRANCH  23  24
ENDBRANCH  22  23
ENDBRANCH  20  22
ENDBRANCH   5  20
BRANCH  19  28
ATOM     28  O   UNL d   1     132.229 120.012 168.641  0.00  0.00    -0.385 OA
ATOM     29  H   UNL d   1     131.749 119.439 168.016  0.00  0.00     0.210 HD
ENDBRANCH  19  28
TORSDOF 6
ENDMDL
MODEL 13
REMARK VINA RESULT:    -7.852     42.209     46.393
REMARK INTER + INTRA:         -11.344
REMARK INTER:                  -9.667
REMARK INTRA:                  -1.677
REMARK UNBOUND:                -0.967
REMARK  6 active torsions:
REMARK  status: ('A' for Active; 'I' for Inactive)
REMARK    1  A    between atoms: O_1  and  C_22 
REMARK    2  A    between atoms: C_6  and  C_13 
REMARK    3  A    between atoms: C_13  and  C_21 
REMARK    4  A    between atoms: C_21  and  C_24 
REMARK    5  A    between atoms: C_24  and  C_25 
REMARK    6  A    between atoms: C_25  and  C_26 
ROOT
ATOM      1  C   UNL d   1     129.559 122.164 171.114  0.00  0.00     0.000 C 
ATOM      2  C   UNL d   1     129.125 120.935 171.954  0.00  0.00     0.000 C 
ATOM      3  C   UNL d   1     128.918 119.688 171.094  0.00  0.00     0.005 C 
ATOM      4  C   UNL d   1     130.246 119.320 170.371  0.00  0.00     0.004 C 
ATOM      5  C   UNL d   1     129.528 123.293 172.193  0.00  0.00     0.000 C 
ATOM      6  C   UNL d   1     130.967 121.813 170.596  0.00  0.00     0.000 C 
ATOM      7  C   UNL d   1     130.038 118.104 169.380  0.00  0.00     0.015 C 
ATOM      8  C   UNL d   1     127.949 121.448 172.765  0.00  0.00     0.000 C 
ATOM      9  C   UNL d   1     130.959 120.544 169.726  0.00  0.00     0.000 C 
ATOM     10  C   UNL d   1     128.367 122.871 173.143  0.00  0.00     0.000 C 
ATOM     11  C   UNL d   1     128.417 118.496 171.922  0.00  0.00     0.025 C 
ATOM     12  C   UNL d   1     128.579 122.454 169.950  0.00  0.00     0.000 C 
ATOM     13  C   UNL d   1     129.164 117.020 170.028  0.00  0.00    -0.047 C 
ATOM     14  C   UNL d   1     131.432 117.493 169.055  0.00  0.00     0.006 C 
ATOM     15  C   UNL d   1     128.473 117.207 171.165  0.00  0.00    -0.035 C 
ATOM     16  C   UNL d   1     129.356 118.560 168.067  0.00  0.00     0.004 C 
ATOM     17  C   UNL d   1     129.115 115.679 169.321  0.00  0.00     0.051 C 
ATOM     18  C   UNL d   1     131.373 116.163 168.303  0.00  0.00     0.030 C 
ATOM     19  C   UNL d   1     130.515 115.138 169.040  0.00  0.00     0.115 C 
ENDROOT
BRANCH   5  20
ATOM     20  C   UNL d   1     129.398 124.793 171.755  0.00  0.00     0.000 C 
ATOM     21  C   UNL d   1     130.698 125.584 171.944  0.00  0.00     0.000 C 
BRANCH  20  22
ATOM     22  C   UNL d   1     128.227 125.459 172.534  0.00  0.00     0.000 C 
BRANCH  22  23
ATOM     23  C   UNL d   1     127.223 126.304 171.736  0.00  0.00     0.000 C 
BRANCH  23  24
ATOM     24  C   UNL d   1     125.807 125.729 171.601  0.00  0.00     0.000 C 
BRANCH  24  25
ATOM     25  C   UNL d   1     125.728 124.290 171.059  0.00  0.00     0.000 C 
ATOM     26  C   UNL d   1     124.753 123.429 171.866  0.00  0.00     0.000 C 
ATOM     27  C   UNL d   1     125.309 124.305 169.587  0.00  0.00     0.000 C 
ENDBRANCH  24  25
ENDBRANCH  23  24
ENDBRANCH  22  23
ENDBRANCH  20  22
ENDBRANCH   5  20
BRANCH  19  28
ATOM     28  O   UNL d   1     130.400 113.959 168.245  0.00  0.00    -0.385 OA
ATOM     29  H   UNL d   1     131.009 113.295 168.617  0.00  0.00     0.210 HD
ENDBRANCH  19  28
TORSDOF 6
ENDMDL
