MODEL 1
REMARK VINA RESULT:    -8.080      0.000      0.000
REMARK INTER + INTRA:         -12.374
REMARK INTER:                 -10.677
REMARK INTRA:                  -1.697
REMARK UNBOUND:                -1.697
REMARK  6 active torsions:
REMARK  status: ('A' for Active; 'I' for Inactive)
REMARK    1  A    between atoms: O_1  and  C_22 
REMARK    2  A    between atoms: C_6  and  C_13 
REMARK    3  A    between atoms: C_13  and  C_21 
REMARK    4  A    between atoms: C_21  and  C_24 
REMARK    5  A    between atoms: C_24  and  C_25 
REMARK    6  A    between atoms: C_25  and  C_26 
ROOT
ATOM      1  C   UNL d   1     126.772 125.702 171.455  0.00  0.00     0.000 C 
ATOM      2  C   UNL d   1     128.235 125.999 171.038  0.00  0.00     0.000 C 
ATOM      3  C   UNL d   1     129.128 124.761 171.135  0.00  0.00     0.005 C 
ATOM      4  C   UNL d   1     128.587 123.645 170.196  0.00  0.00     0.004 C 
ATOM      5  C   UNL d   1     126.153 127.136 171.424  0.00  0.00     0.000 C 
ATOM      6  C   UNL d   1     126.235 124.751 170.368  0.00  0.00     0.000 C 
ATOM      7  C   UNL d   1     129.419 122.309 170.359  0.00  0.00     0.015 C 
ATOM      8  C   UNL d   1     128.608 127.216 171.865  0.00  0.00     0.000 C 
ATOM      9  C   UNL d   1     127.047 123.446 170.294  0.00  0.00     0.000 C 
ATOM     10  C   UNL d   1     127.332 128.061 171.854  0.00  0.00     0.000 C 
ATOM     11  C   UNL d   1     130.591 125.080 170.793  0.00  0.00     0.025 C 
ATOM     12  C   UNL d   1     126.681 125.066 172.864  0.00  0.00     0.000 C 
ATOM     13  C   UNL d   1     130.921 122.612 170.443  0.00  0.00    -0.047 C 
ATOM     14  C   UNL d   1     129.157 121.414 169.112  0.00  0.00     0.006 C 
ATOM     15  C   UNL d   1     131.420 123.847 170.612  0.00  0.00    -0.035 C 
ATOM     16  C   UNL d   1     129.004 121.542 171.639  0.00  0.00     0.004 C 
ATOM     17  C   UNL d   1     131.858 121.427 170.311  0.00  0.00     0.051 C 
ATOM     18  C   UNL d   1     130.078 120.197 169.011  0.00  0.00     0.030 C 
ATOM     19  C   UNL d   1     131.550 120.599 169.065  0.00  0.00     0.115 C 
ENDROOT
BRANCH   5  20
ATOM     20  C   UNL d   1     124.851 127.445 172.241  0.00  0.00     0.000 C 
ATOM     21  C   UNL d   1     123.570 127.184 171.440  0.00  0.00     0.000 C 
BRANCH  20  22
ATOM     22  C   UNL d   1     124.896 128.916 172.747  0.00  0.00     0.000 C 
BRANCH  22  23
ATOM     23  C   UNL d   1     124.733 129.163 174.254  0.00  0.00     0.000 C 
BRANCH  23  24
ATOM     24  C   UNL d   1     126.024 129.393 175.048  0.00  0.00     0.000 C 
BRANCH  24  25
ATOM     25  C   UNL d   1     126.500 128.199 175.896  0.00  0.00     0.000 C 
ATOM     26  C   UNL d   1     125.486 127.051 175.885  0.00  0.00     0.000 C 
ATOM     27  C   UNL d   1     127.854 127.699 175.388  0.00  0.00     0.000 C 
ENDBRANCH  24  25
ENDBRANCH  23  24
ENDBRANCH  22  23
ENDBRANCH  20  22
ENDBRANCH   5  20
BRANCH  19  28
ATOM     28  O   UNL d   1     132.360 119.425 169.082  0.00  0.00    -0.385 OA
ATOM     29  H   UNL d   1     132.336 119.066 169.988  0.00  0.00     0.210 HD
ENDBRANCH  19  28
TORSDOF 6
ENDMDL
MODEL 2
REMARK VINA RESULT:    -7.967      1.446      2.825
REMARK INTER + INTRA:         -12.225
REMARK INTER:                 -10.744
REMARK INTRA:                  -1.481
REMARK UNBOUND:                -1.697
REMARK  6 active torsions:
REMARK  status: ('A' for Active; 'I' for Inactive)
REMARK    1  A    between atoms: O_1  and  C_22 
REMARK    2  A    between atoms: C_6  and  C_13 
REMARK    3  A    between atoms: C_13  and  C_21 
REMARK    4  A    between atoms: C_21  and  C_24 
REMARK    5  A    between atoms: C_24  and  C_25 
REMARK    6  A    between atoms: C_25  and  C_26 
ROOT
ATOM      1  C   UNL d   1     126.550 124.781 171.011  0.00  0.00     0.000 C 
ATOM      2  C   UNL d   1     127.014 123.627 171.936  0.00  0.00     0.000 C 
ATOM      3  C   UNL d   1     128.105 122.770 171.291  0.00  0.00     0.005 C 
ATOM      4  C   UNL d   1     129.349 123.651 170.975  0.00  0.00     0.004 C 
ATOM      5  C   UNL d   1     125.353 125.361 171.830  0.00  0.00     0.000 C 
ATOM      6  C   UNL d   1     127.768 125.720 170.906  0.00  0.00     0.000 C 
ATOM      7  C   UNL d   1     130.452 122.822 170.200  0.00  0.00     0.015 C 
ATOM      8  C   UNL d   1     125.720 122.948 172.345  0.00  0.00     0.000 C 
ATOM      9  C   UNL d   1     128.991 125.008 170.303  0.00  0.00     0.000 C 
ATOM     10  C   UNL d   1     124.750 124.115 172.545  0.00  0.00     0.000 C 
ATOM     11  C   UNL d   1     128.506 121.586 172.182  0.00  0.00     0.025 C 
ATOM     12  C   UNL d   1     126.101 124.272 169.618  0.00  0.00     0.000 C 
ATOM     13  C   UNL d   1     130.609 121.423 170.813  0.00  0.00    -0.047 C 
ATOM     14  C   UNL d   1     131.808 123.577 170.323  0.00  0.00     0.006 C 
ATOM     15  C   UNL d   1     129.750 120.904 171.705  0.00  0.00    -0.035 C 
ATOM     16  C   UNL d   1     130.086 122.661 168.704  0.00  0.00     0.004 C 
ATOM     17  C   UNL d   1     131.818 120.623 170.369  0.00  0.00     0.051 C 
ATOM     18  C   UNL d   1     133.016 122.778 169.832  0.00  0.00     0.030 C 
ATOM     19  C   UNL d   1     133.111 121.420 170.523  0.00  0.00     0.115 C 
ENDROOT
BRANCH   5  20
ATOM     20  C   UNL d   1     124.245 126.204 171.109  0.00  0.00     0.000 C 
ATOM     21  C   UNL d   1     124.771 127.539 170.568  0.00  0.00     0.000 C 
BRANCH  20  22
ATOM     22  C   UNL d   1     123.055 126.434 172.085  0.00  0.00     0.000 C 
BRANCH  22  23
ATOM     23  C   UNL d   1     123.143 127.617 173.060  0.00  0.00     0.000 C 
BRANCH  23  24
ATOM     24  C   UNL d   1     123.580 127.286 174.492  0.00  0.00     0.000 C 
BRANCH  24  25
ATOM     25  C   UNL d   1     124.891 127.951 174.952  0.00  0.00     0.000 C 
ATOM     26  C   UNL d   1     126.041 126.944 175.040  0.00  0.00     0.000 C 
ATOM     27  C   UNL d   1     125.269 129.086 173.997  0.00  0.00     0.000 C 
ENDBRANCH  24  25
ENDBRANCH  23  24
ENDBRANCH  22  23
ENDBRANCH  20  22
ENDBRANCH   5  20
BRANCH  19  28
ATOM     28  O   UNL d   1     134.183 120.673 169.950  0.00  0.00    -0.385 OA
ATOM     29  H   UNL d   1     134.444 121.122 169.125  0.00  0.00     0.210 HD
ENDBRANCH  19  28
TORSDOF 6
ENDMDL
MODEL 3
REMARK VINA RESULT:    -7.799      1.407      3.320
REMARK INTER + INTRA:         -12.003
REMARK INTER:                 -10.294
REMARK INTRA:                  -1.709
REMARK UNBOUND:                -1.697
REMARK  6 active torsions:
REMARK  status: ('A' for Active; 'I' for Inactive)
REMARK    1  A    between atoms: O_1  and  C_22 
REMARK    2  A    between atoms: C_6  and  C_13 
REMARK    3  A    between atoms: C_13  and  C_21 
REMARK    4  A    between atoms: C_21  and  C_24 
REMARK    5  A    between atoms: C_24  and  C_25 
REMARK    6  A    between atoms: C_25  and  C_26 
ROOT
ATOM      1  C   UNL d   1     128.498 126.464 172.984  0.00  0.00     0.000 C 
ATOM      2  C   UNL d   1     128.602 125.056 173.623  0.00  0.00     0.000 C 
ATOM      3  C   UNL d   1     128.931 123.974 172.593  0.00  0.00     0.005 C 
ATOM      4  C   UNL d   1     130.296 124.288 171.917  0.00  0.00     0.004 C 
ATOM      5  C   UNL d   1     128.000 127.311 174.198  0.00  0.00     0.000 C 
ATOM      6  C   UNL d   1     129.929 126.796 172.517  0.00  0.00     0.000 C 
ATOM      7  C   UNL d   1     130.612 123.253 170.762  0.00  0.00     0.015 C 
ATOM      8  C   UNL d   1     127.315 124.922 174.415  0.00  0.00     0.000 C 
ATOM      9  C   UNL d   1     130.448 125.776 171.488  0.00  0.00     0.000 C 
ATOM     10  C   UNL d   1     127.109 126.319 175.005  0.00  0.00     0.000 C 
ATOM     11  C   UNL d   1     128.958 122.573 173.221  0.00  0.00     0.025 C 
ATOM     12  C   UNL d   1     127.492 126.501 171.806  0.00  0.00     0.000 C 
ATOM     13  C   UNL d   1     130.256 121.825 171.201  0.00  0.00    -0.047 C 
ATOM     14  C   UNL d   1     132.136 123.315 170.451  0.00  0.00     0.006 C 
ATOM     15  C   UNL d   1     129.544 121.545 172.305  0.00  0.00    -0.035 C 
ATOM     16  C   UNL d   1     129.811 123.582 169.479  0.00  0.00     0.004 C 
ATOM     17  C   UNL d   1     130.766 120.701 170.321  0.00  0.00     0.051 C 
ATOM     18  C   UNL d   1     132.632 122.202 169.527  0.00  0.00     0.030 C 
ATOM     19  C   UNL d   1     132.267 120.821 170.063  0.00  0.00     0.115 C 
ENDROOT
BRANCH   5  20
ATOM     20  C   UNL d   1     127.268 128.676 173.955  0.00  0.00     0.000 C 
ATOM     21  C   UNL d   1     128.173 129.889 174.200  0.00  0.00     0.000 C 
BRANCH  20  22
ATOM     22  C   UNL d   1     125.996 128.746 174.849  0.00  0.00     0.000 C 
BRANCH  22  23
ATOM     23  C   UNL d   1     124.634 128.886 174.151  0.00  0.00     0.000 C 
BRANCH  23  24
ATOM     24  C   UNL d   1     124.612 128.599 172.644  0.00  0.00     0.000 C 
BRANCH  24  25
ATOM     25  C   UNL d   1     123.680 127.456 172.203  0.00  0.00     0.000 C 
ATOM     26  C   UNL d   1     123.886 127.086 170.732  0.00  0.00     0.000 C 
ATOM     27  C   UNL d   1     123.906 126.224 173.083  0.00  0.00     0.000 C 
ENDBRANCH  24  25
ENDBRANCH  23  24
ENDBRANCH  22  23
ENDBRANCH  20  22
ENDBRANCH   5  20
BRANCH  19  28
ATOM     28  O   UNL d   1     132.651 119.828 169.113  0.00  0.00    -0.385 OA
ATOM     29  H   UNL d   1     132.178 119.007 169.341  0.00  0.00     0.210 HD
ENDBRANCH  19  28
TORSDOF 6
ENDMDL
MODEL 4
REMARK VINA RESULT:    -7.788     29.369     32.086
REMARK INTER + INTRA:         -11.988
REMARK INTER:                 -10.521
REMARK INTRA:                  -1.467
REMARK UNBOUND:                -1.697
REMARK  6 active torsions:
REMARK  status: ('A' for Active; 'I' for Inactive)
REMARK    1  A    between atoms: O_1  and  C_22 
REMARK    2  A    between atoms: C_6  and  C_13 
REMARK    3  A    between atoms: C_13  and  C_21 
REMARK    4  A    between atoms: C_21  and  C_24 
REMARK    5  A    between atoms: C_24  and  C_25 
REMARK    6  A    between atoms: C_25  and  C_26 
ROOT
ATOM      1  C   UNL d   1     126.859 141.425 198.234  0.00  0.00     0.000 C 
ATOM      2  C   UNL d   1     125.944 140.689 197.222  0.00  0.00     0.000 C 
ATOM      3  C   UNL d   1     124.983 139.717 197.908  0.00  0.00     0.005 C 
ATOM      4  C   UNL d   1     124.065 140.493 198.897  0.00  0.00     0.004 C 
ATOM      5  C   UNL d   1     127.818 142.193 197.271  0.00  0.00     0.000 C 
ATOM      6  C   UNL d   1     125.909 142.327 199.045  0.00  0.00     0.000 C 
ATOM      7  C   UNL d   1     123.138 139.503 199.711  0.00  0.00     0.015 C 
ATOM      8  C   UNL d   1     126.913 140.131 196.196  0.00  0.00     0.000 C 
ATOM      9  C   UNL d   1     124.835 141.512 199.786  0.00  0.00     0.000 C 
ATOM     10  C   UNL d   1     127.952 141.245 196.041  0.00  0.00     0.000 C 
ATOM     11  C   UNL d   1     124.133 138.939 196.894  0.00  0.00     0.025 C 
ATOM     12  C   UNL d   1     127.630 140.441 199.150  0.00  0.00     0.000 C 
ATOM     13  C   UNL d   1     122.567 138.414 198.791  0.00  0.00    -0.047 C 
ATOM     14  C   UNL d   1     121.957 140.320 200.311  0.00  0.00     0.006 C 
ATOM     15  C   UNL d   1     123.005 138.196 197.540  0.00  0.00    -0.035 C 
ATOM     16  C   UNL d   1     123.921 138.813 200.855  0.00  0.00     0.004 C 
ATOM     17  C   UNL d   1     121.442 137.571 199.359  0.00  0.00     0.051 C 
ATOM     18  C   UNL d   1     120.848 139.461 200.922  0.00  0.00     0.030 C 
ATOM     19  C   UNL d   1     120.317 138.435 199.923  0.00  0.00     0.115 C 
ENDROOT
BRANCH   5  20
ATOM     20  C   UNL d   1     129.220 142.676 197.781  0.00  0.00     0.000 C 
ATOM     21  C   UNL d   1     129.434 144.184 197.596  0.00  0.00     0.000 C 
BRANCH  20  22
ATOM     22  C   UNL d   1     130.338 141.867 197.062  0.00  0.00     0.000 C 
BRANCH  22  23
ATOM     23  C   UNL d   1     131.547 141.416 197.895  0.00  0.00     0.000 C 
BRANCH  23  24
ATOM     24  C   UNL d   1     131.281 141.135 199.379  0.00  0.00     0.000 C 
BRANCH  24  25
ATOM     25  C   UNL d   1     131.890 142.151 200.363  0.00  0.00     0.000 C 
ATOM     26  C   UNL d   1     132.534 143.335 199.636  0.00  0.00     0.000 C 
ATOM     27  C   UNL d   1     130.815 142.659 201.327  0.00  0.00     0.000 C 
ENDBRANCH  24  25
ENDBRANCH  23  24
ENDBRANCH  22  23
ENDBRANCH  20  22
ENDBRANCH   5  20
BRANCH  19  28
ATOM     28  O   UNL d   1     119.370 137.590 200.573  0.00  0.00    -0.385 OA
ATOM     29  H   UNL d   1     118.977 138.099 201.306  0.00  0.00     0.210 HD
ENDBRANCH  19  28
TORSDOF 6
ENDMDL
MODEL 5
REMARK VINA RESULT:    -7.645      3.391      8.167
REMARK INTER + INTRA:         -11.800
REMARK INTER:                 -10.492
REMARK INTRA:                  -1.308
REMARK UNBOUND:                -1.697
REMARK  6 active torsions:
REMARK  status: ('A' for Active; 'I' for Inactive)
REMARK    1  A    between atoms: O_1  and  C_22 
REMARK    2  A    between atoms: C_6  and  C_13 
REMARK    3  A    between atoms: C_13  and  C_21 
REMARK    4  A    between atoms: C_21  and  C_24 
REMARK    5  A    between atoms: C_24  and  C_25 
REMARK    6  A    between atoms: C_25  and  C_26 
ROOT
ATOM      1  C   UNL d   1     127.737 123.321 171.486  0.00  0.00     0.000 C 
ATOM      2  C   UNL d   1     128.329 124.689 171.912  0.00  0.00     0.000 C 
ATOM      3  C   UNL d   1     127.489 125.866 171.414  0.00  0.00     0.005 C 
ATOM      4  C   UNL d   1     126.050 125.772 171.999  0.00  0.00     0.004 C 
ATOM      5  C   UNL d   1     128.856 122.344 171.968  0.00  0.00     0.000 C 
ATOM      6  C   UNL d   1     126.409 123.205 172.260  0.00  0.00     0.000 C 
ATOM      7  C   UNL d   1     125.120 126.908 171.410  0.00  0.00     0.015 C 
ATOM      8  C   UNL d   1     129.780 124.609 171.473  0.00  0.00     0.000 C 
ATOM      9  C   UNL d   1     125.437 124.344 171.907  0.00  0.00     0.000 C 
ATOM     10  C   UNL d   1     130.170 123.162 171.787  0.00  0.00     0.000 C 
ATOM     11  C   UNL d   1     128.122 127.217 171.776  0.00  0.00     0.025 C 
ATOM     12  C   UNL d   1     127.514 123.230 169.955  0.00  0.00     0.000 C 
ATOM     13  C   UNL d   1     125.867 128.249 171.360  0.00  0.00    -0.047 C 
ATOM     14  C   UNL d   1     123.883 127.060 172.342  0.00  0.00     0.006 C 
ATOM     15  C   UNL d   1     127.192 128.366 171.548  0.00  0.00    -0.035 C 
ATOM     16  C   UNL d   1     124.646 126.560 169.978  0.00  0.00     0.004 C 
ATOM     17  C   UNL d   1     125.026 129.482 171.094  0.00  0.00     0.051 C 
ATOM     18  C   UNL d   1     123.016 128.283 172.038  0.00  0.00     0.030 C 
ATOM     19  C   UNL d   1     123.835 129.570 172.047  0.00  0.00     0.115 C 
ENDROOT
BRANCH   5  20
ATOM     20  C   UNL d   1     128.976 120.915 171.335  0.00  0.00     0.000 C 
ATOM     21  C   UNL d   1     128.291 119.831 172.176  0.00  0.00     0.000 C 
BRANCH  20  22
ATOM     22  C   UNL d   1     130.477 120.574 171.110  0.00  0.00     0.000 C 
BRANCH  22  23
ATOM     23  C   UNL d   1     130.915 120.154 169.698  0.00  0.00     0.000 C 
BRANCH  23  24
ATOM     24  C   UNL d   1     132.389 120.387 169.347  0.00  0.00     0.000 C 
BRANCH  24  25
ATOM     25  C   UNL d   1     132.707 121.747 168.698  0.00  0.00     0.000 C 
ATOM     26  C   UNL d   1     131.463 122.387 168.075  0.00  0.00     0.000 C 
ATOM     27  C   UNL d   1     133.313 122.696 169.735  0.00  0.00     0.000 C 
ENDBRANCH  24  25
ENDBRANCH  23  24
ENDBRANCH  22  23
ENDBRANCH  20  22
ENDBRANCH   5  20
BRANCH  19  28
ATOM     28  O   UNL d   1     123.007 130.661 171.648  0.00  0.00    -0.385 OA
ATOM     29  H   UNL d   1     123.539 131.474 171.721  0.00  0.00     0.210 HD
ENDBRANCH  19  28
TORSDOF 6
ENDMDL
MODEL 6
REMARK VINA RESULT:    -7.325     27.933     31.027
REMARK INTER + INTRA:         -11.377
REMARK INTER:                 -10.043
REMARK INTRA:                  -1.334
REMARK UNBOUND:                -1.697
REMARK  6 active torsions:
REMARK  status: ('A' for Active; 'I' for Inactive)
REMARK    1  A    between atoms: O_1  and  C_22 
REMARK    2  A    between atoms: C_6  and  C_13 
REMARK    3  A    between atoms: C_13  and  C_21 
REMARK    4  A    between atoms: C_21  and  C_24 
REMARK    5  A    between atoms: C_24  and  C_25 
REMARK    6  A    between atoms: C_25  and  C_26 
ROOT
ATOM      1  C   UNL d   1     125.635 141.105 198.351  0.00  0.00     0.000 C 
ATOM      2  C   UNL d   1     124.857 140.861 197.033  0.00  0.00     0.000 C 
ATOM      3  C   UNL d   1     124.384 139.413 196.897  0.00  0.00     0.005 C 
ATOM      4  C   UNL d   1     123.436 139.054 198.078  0.00  0.00     0.004 C 
ATOM      5  C   UNL d   1     126.127 142.573 198.144  0.00  0.00     0.000 C 
ATOM      6  C   UNL d   1     124.587 140.933 199.468  0.00  0.00     0.000 C 
ATOM      7  C   UNL d   1     123.022 137.528 198.034  0.00  0.00     0.015 C 
ATOM      8  C   UNL d   1     125.776 141.416 195.961  0.00  0.00     0.000 C 
ATOM      9  C   UNL d   1     123.968 139.524 199.463  0.00  0.00     0.000 C 
ATOM     10  C   UNL d   1     126.360 142.675 196.606  0.00  0.00     0.000 C 
ATOM     11  C   UNL d   1     123.680 139.162 195.556  0.00  0.00     0.025 C 
ATOM     12  C   UNL d   1     126.819 140.120 198.523  0.00  0.00     0.000 C 
ATOM     13  C   UNL d   1     122.694 137.096 196.598  0.00  0.00    -0.047 C 
ATOM     14  C   UNL d   1     121.753 137.340 198.916  0.00  0.00     0.006 C 
ATOM     15  C   UNL d   1     122.971 137.844 195.517  0.00  0.00    -0.035 C 
ATOM     16  C   UNL d   1     124.159 136.622 198.568  0.00  0.00     0.004 C 
ATOM     17  C   UNL d   1     122.008 135.753 196.436  0.00  0.00     0.051 C 
ATOM     18  C   UNL d   1     121.094 135.966 198.779  0.00  0.00     0.030 C 
ATOM     19  C   UNL d   1     120.770 135.640 197.323  0.00  0.00     0.115 C 
ENDROOT
BRANCH   5  20
ATOM     20  C   UNL d   1     127.360 143.108 198.951  0.00  0.00     0.000 C 
ATOM     21  C   UNL d   1     126.957 143.990 200.138  0.00  0.00     0.000 C 
BRANCH  20  22
ATOM     22  C   UNL d   1     128.312 143.876 197.989  0.00  0.00     0.000 C 
BRANCH  22  23
ATOM     23  C   UNL d   1     129.793 143.467 197.967  0.00  0.00     0.000 C 
BRANCH  23  24
ATOM     24  C   UNL d   1     130.141 142.140 198.653  0.00  0.00     0.000 C 
BRANCH  24  25
ATOM     25  C   UNL d   1     131.127 142.245 199.831  0.00  0.00     0.000 C 
ATOM     26  C   UNL d   1     132.229 143.275 199.564  0.00  0.00     0.000 C 
ATOM     27  C   UNL d   1     130.377 142.610 201.114  0.00  0.00     0.000 C 
ENDBRANCH  24  25
ENDBRANCH  23  24
ENDBRANCH  22  23
ENDBRANCH  20  22
ENDBRANCH   5  20
BRANCH  19  28
ATOM     28  O   UNL d   1     120.264 134.309 197.238  0.00  0.00    -0.385 OA
ATOM     29  H   UNL d   1     120.526 133.844 198.053  0.00  0.00     0.210 HD
ENDBRANCH  19  28
TORSDOF 6
ENDMDL
MODEL 7
REMARK VINA RESULT:    -7.303      2.718      5.696
REMARK INTER + INTRA:         -11.347
REMARK INTER:                  -9.879
REMARK INTRA:                  -1.468
REMARK UNBOUND:                -1.697
REMARK  6 active torsions:
REMARK  status: ('A' for Active; 'I' for Inactive)
REMARK    1  A    between atoms: O_1  and  C_22 
REMARK    2  A    between atoms: C_6  and  C_13 
REMARK    3  A    between atoms: C_13  and  C_21 
REMARK    4  A    between atoms: C_21  and  C_24 
REMARK    5  A    between atoms: C_24  and  C_25 
REMARK    6  A    between atoms: C_25  and  C_26 
ROOT
ATOM      1  C   UNL d   1     129.742 122.123 171.047  0.00  0.00     0.000 C 
ATOM      2  C   UNL d   1     129.335 120.941 171.963  0.00  0.00     0.000 C 
ATOM      3  C   UNL d   1     129.088 119.654 171.174  0.00  0.00     0.005 C 
ATOM      4  C   UNL d   1     130.383 119.241 170.418  0.00  0.00     0.004 C 
ATOM      5  C   UNL d   1     129.759 123.304 172.069  0.00  0.00     0.000 C 
ATOM      6  C   UNL d   1     131.126 121.737 170.491  0.00  0.00     0.000 C 
ATOM      7  C   UNL d   1     130.130 117.979 169.498  0.00  0.00     0.015 C 
ATOM      8  C   UNL d   1     128.195 121.501 172.793  0.00  0.00     0.000 C 
ATOM      9  C   UNL d   1     131.077 120.427 169.686  0.00  0.00     0.000 C 
ATOM     10  C   UNL d   1     128.635 122.938 173.084  0.00  0.00     0.000 C 
ATOM     11  C   UNL d   1     128.613 118.508 172.079  0.00  0.00     0.025 C 
ATOM     12  C   UNL d   1     128.717 122.362 169.909  0.00  0.00     0.000 C 
ATOM     13  C   UNL d   1     129.276 116.936 170.232  0.00  0.00    -0.047 C 
ATOM     14  C   UNL d   1     131.507 117.343 169.148  0.00  0.00     0.006 C 
ATOM     15  C   UNL d   1     128.633 117.182 171.385  0.00  0.00    -0.035 C 
ATOM     16  C   UNL d   1     129.399 118.375 168.191  0.00  0.00     0.004 C 
ATOM     17  C   UNL d   1     129.192 115.562 169.595  0.00  0.00     0.051 C 
ATOM     18  C   UNL d   1     131.411 115.978 168.466  0.00  0.00     0.030 C 
ATOM     19  C   UNL d   1     130.577 114.997 169.286  0.00  0.00     0.115 C 
ENDROOT
BRANCH   5  20
ATOM     20  C   UNL d   1     129.620 124.781 171.562  0.00  0.00     0.000 C 
ATOM     21  C   UNL d   1     130.952 125.541 171.567  0.00  0.00     0.000 C 
BRANCH  20  22
ATOM     22  C   UNL d   1     128.557 125.524 172.423  0.00  0.00     0.000 C 
BRANCH  22  23
ATOM     23  C   UNL d   1     127.304 126.059 171.712  0.00  0.00     0.000 C 
BRANCH  23  24
ATOM     24  C   UNL d   1     127.071 125.560 170.281  0.00  0.00     0.000 C 
BRANCH  24  25
ATOM     25  C   UNL d   1     126.174 124.315 170.154  0.00  0.00     0.000 C 
ATOM     26  C   UNL d   1     125.384 124.047 171.438  0.00  0.00     0.000 C 
ATOM     27  C   UNL d   1     125.209 124.480 168.977  0.00  0.00     0.000 C 
ENDBRANCH  24  25
ENDBRANCH  23  24
ENDBRANCH  22  23
ENDBRANCH  20  22
ENDBRANCH   5  20
BRANCH  19  28
ATOM     28  O   UNL d   1     130.424 113.781 168.555  0.00  0.00    -0.385 OA
ATOM     29  H   UNL d   1     130.040 113.122 169.162  0.00  0.00     0.210 HD
ENDBRANCH  19  28
TORSDOF 6
ENDMDL
MODEL 8
REMARK VINA RESULT:    -7.269     29.987     33.409
REMARK INTER + INTRA:         -11.302
REMARK INTER:                  -9.865
REMARK INTRA:                  -1.438
REMARK UNBOUND:                -1.697
REMARK  6 active torsions:
REMARK  status: ('A' for Active; 'I' for Inactive)
REMARK    1  A    between atoms: O_1  and  C_22 
REMARK    2  A    between atoms: C_6  and  C_13 
REMARK    3  A    between atoms: C_13  and  C_21 
REMARK    4  A    between atoms: C_21  and  C_24 
REMARK    5  A    between atoms: C_24  and  C_25 
REMARK    6  A    between atoms: C_25  and  C_26 
ROOT
ATOM      1  C   UNL d   1     127.952 142.357 198.178  0.00  0.00     0.000 C 
ATOM      2  C   UNL d   1     127.828 143.071 199.548  0.00  0.00     0.000 C 
ATOM      3  C   UNL d   1     129.001 142.751 200.477  0.00  0.00     0.005 C 
ATOM      4  C   UNL d   1     130.334 143.213 199.821  0.00  0.00     0.004 C 
ATOM      5  C   UNL d   1     126.579 142.717 197.525  0.00  0.00     0.000 C 
ATOM      6  C   UNL d   1     129.173 143.007 197.499  0.00  0.00     0.000 C 
ATOM      7  C   UNL d   1     131.579 142.791 200.702  0.00  0.00     0.015 C 
ATOM      8  C   UNL d   1     126.429 142.720 200.016  0.00  0.00     0.000 C 
ATOM      9  C   UNL d   1     130.458 142.813 198.322  0.00  0.00     0.000 C 
ATOM     10  C   UNL d   1     125.596 142.780 198.733  0.00  0.00     0.000 C 
ATOM     11  C   UNL d   1     128.834 143.402 201.857  0.00  0.00     0.025 C 
ATOM     12  C   UNL d   1     128.132 140.825 198.329  0.00  0.00     0.000 C 
ATOM     13  C   UNL d   1     131.300 143.043 202.191  0.00  0.00    -0.047 C 
ATOM     14  C   UNL d   1     132.801 143.652 200.269  0.00  0.00     0.006 C 
ATOM     15  C   UNL d   1     130.083 143.335 202.678  0.00  0.00    -0.035 C 
ATOM     16  C   UNL d   1     131.915 141.290 200.517  0.00  0.00     0.004 C 
ATOM     17  C   UNL d   1     132.492 142.961 203.125  0.00  0.00     0.051 C 
ATOM     18  C   UNL d   1     134.013 143.528 201.193  0.00  0.00     0.030 C 
ATOM     19  C   UNL d   1     133.649 143.834 202.643  0.00  0.00     0.115 C 
ENDROOT
BRANCH   5  20
ATOM     20  C   UNL d   1     126.007 141.834 196.363  0.00  0.00     0.000 C 
ATOM     21  C   UNL d   1     125.896 142.595 195.036  0.00  0.00     0.000 C 
BRANCH  20  22
ATOM     22  C   UNL d   1     124.626 141.254 196.785  0.00  0.00     0.000 C 
BRANCH  22  23
ATOM     23  C   UNL d   1     124.591 139.830 197.358  0.00  0.00     0.000 C 
BRANCH  23  24
ATOM     24  C   UNL d   1     123.570 139.572 198.473  0.00  0.00     0.000 C 
BRANCH  24  25
ATOM     25  C   UNL d   1     124.079 139.816 199.905  0.00  0.00     0.000 C 
ATOM     26  C   UNL d   1     123.067 139.356 200.958  0.00  0.00     0.000 C 
ATOM     27  C   UNL d   1     125.413 139.095 200.119  0.00  0.00     0.000 C 
ENDBRANCH  24  25
ENDBRANCH  23  24
ENDBRANCH  22  23
ENDBRANCH  20  22
ENDBRANCH   5  20
BRANCH  19  28
ATOM     28  O   UNL d   1     134.782 143.595 203.476  0.00  0.00    -0.385 OA
ATOM     29  H   UNL d   1     134.692 144.163 204.263  0.00  0.00     0.210 HD
ENDBRANCH  19  28
TORSDOF 6
ENDMDL
MODEL 9
REMARK VINA RESULT:    -7.255      1.657      3.644
REMARK INTER + INTRA:         -11.284
REMARK INTER:                  -9.629
REMARK INTRA:                  -1.655
REMARK UNBOUND:                -1.697
REMARK  6 active torsions:
REMARK  status: ('A' for Active; 'I' for Inactive)
REMARK    1  A    between atoms: O_1  and  C_22 
REMARK    2  A    between atoms: C_6  and  C_13 
REMARK    3  A    between atoms: C_13  and  C_21 
REMARK    4  A    between atoms: C_21  and  C_24 
REMARK    5  A    between atoms: C_24  and  C_25 
REMARK    6  A    between atoms: C_25  and  C_26 
ROOT
ATOM      1  C   UNL d   1     128.130 124.639 172.255  0.00  0.00     0.000 C 
ATOM      2  C   UNL d   1     127.924 123.322 173.046  0.00  0.00     0.000 C 
ATOM      3  C   UNL d   1     128.127 122.083 172.173  0.00  0.00     0.005 C 
ATOM      4  C   UNL d   1     129.575 122.071 171.604  0.00  0.00     0.004 C 
ATOM      5  C   UNL d   1     127.704 125.701 173.319  0.00  0.00     0.000 C 
ATOM      6  C   UNL d   1     129.629 124.658 171.898  0.00  0.00     0.000 C 
ATOM      7  C   UNL d   1     129.783 120.864 170.601  0.00  0.00     0.015 C 
ATOM      8  C   UNL d   1     126.577 123.511 173.719  0.00  0.00     0.000 C 
ATOM      9  C   UNL d   1     130.030 123.447 171.038  0.00  0.00     0.000 C 
ATOM     10  C   UNL d   1     126.587 124.983 174.136  0.00  0.00     0.000 C 
ATOM     11  C   UNL d   1     127.848 120.786 172.945  0.00  0.00     0.025 C 
ATOM     12  C   UNL d   1     127.241 124.707 170.988  0.00  0.00     0.000 C 
ATOM     13  C   UNL d   1     129.138 119.584 171.152  0.00  0.00    -0.047 C 
ATOM     14  C   UNL d   1     131.312 120.623 170.436  0.00  0.00     0.006 C 
ATOM     15  C   UNL d   1     128.304 119.568 172.204  0.00  0.00    -0.035 C 
ATOM     16  C   UNL d   1     129.157 121.170 169.218  0.00  0.00     0.004 C 
ATOM     17  C   UNL d   1     129.500 118.290 170.449  0.00  0.00     0.051 C 
ATOM     18  C   UNL d   1     131.665 119.337 169.687  0.00  0.00     0.030 C 
ATOM     19  C   UNL d   1     131.012 118.115 170.327  0.00  0.00     0.115 C 
ENDROOT
BRANCH   5  20
ATOM     20  C   UNL d   1     127.256 127.132 172.863  0.00  0.00     0.000 C 
ATOM     21  C   UNL d   1     128.412 128.139 172.840  0.00  0.00     0.000 C 
BRANCH  20  22
ATOM     22  C   UNL d   1     126.106 127.632 173.786  0.00  0.00     0.000 C 
BRANCH  22  23
ATOM     23  C   UNL d   1     124.809 128.114 173.119  0.00  0.00     0.000 C 
BRANCH  23  24
ATOM     24  C   UNL d   1     123.578 127.217 173.299  0.00  0.00     0.000 C 
BRANCH  24  25
ATOM     25  C   UNL d   1     123.198 126.365 172.075  0.00  0.00     0.000 C 
ATOM     26  C   UNL d   1     124.035 126.728 170.844  0.00  0.00     0.000 C 
ATOM     27  C   UNL d   1     123.367 124.878 172.395  0.00  0.00     0.000 C 
ENDBRANCH  24  25
ENDBRANCH  23  24
ENDBRANCH  22  23
ENDBRANCH  20  22
ENDBRANCH   5  20
BRANCH  19  28
ATOM     28  O   UNL d   1     131.279 116.964 169.529  0.00  0.00    -0.385 OA
ATOM     29  H   UNL d   1     130.951 116.187 170.018  0.00  0.00     0.210 HD
ENDBRANCH  19  28
TORSDOF 6
ENDMDL
MODEL 10
REMARK VINA RESULT:    -7.253      3.404      8.379
REMARK INTER + INTRA:         -11.282
REMARK INTER:                 -10.068
REMARK INTRA:                  -1.214
REMARK UNBOUND:                -1.697
REMARK  6 active torsions:
REMARK  status: ('A' for Active; 'I' for Inactive)
REMARK    1  A    between atoms: O_1  and  C_22 
REMARK    2  A    between atoms: C_6  and  C_13 
REMARK    3  A    between atoms: C_13  and  C_21 
REMARK    4  A    between atoms: C_21  and  C_24 
REMARK    5  A    between atoms: C_24  and  C_25 
REMARK    6  A    between atoms: C_25  and  C_26 
ROOT
ATOM      1  C   UNL d   1     127.836 123.668 171.561  0.00  0.00     0.000 C 
ATOM      2  C   UNL d   1     128.378 125.062 171.970  0.00  0.00     0.000 C 
ATOM      3  C   UNL d   1     127.498 126.201 171.451  0.00  0.00     0.005 C 
ATOM      4  C   UNL d   1     126.061 126.064 172.031  0.00  0.00     0.004 C 
ATOM      5  C   UNL d   1     128.987 122.739 172.061  0.00  0.00     0.000 C 
ATOM      6  C   UNL d   1     126.510 123.516 172.331  0.00  0.00     0.000 C 
ATOM      7  C   UNL d   1     125.094 127.158 171.422  0.00  0.00     0.015 C 
ATOM      8  C   UNL d   1     129.832 125.027 171.538  0.00  0.00     0.000 C 
ATOM      9  C   UNL d   1     125.500 124.615 171.957  0.00  0.00     0.000 C 
ATOM     10  C   UNL d   1     130.272 123.601 171.875  0.00  0.00     0.000 C 
ATOM     11  C   UNL d   1     128.081 127.579 171.796  0.00  0.00     0.025 C 
ATOM     12  C   UNL d   1     127.624 123.548 170.031  0.00  0.00     0.000 C 
ATOM     13  C   UNL d   1     125.793 128.524 171.356  0.00  0.00    -0.047 C 
ATOM     14  C   UNL d   1     123.847 127.279 172.347  0.00  0.00     0.006 C 
ATOM     15  C   UNL d   1     127.112 128.691 171.547  0.00  0.00    -0.035 C 
ATOM     16  C   UNL d   1     124.639 126.773 169.993  0.00  0.00     0.004 C 
ATOM     17  C   UNL d   1     124.909 129.722 171.069  0.00  0.00     0.051 C 
ATOM     18  C   UNL d   1     122.939 128.466 172.021  0.00  0.00     0.030 C 
ATOM     19  C   UNL d   1     123.712 129.782 172.015  0.00  0.00     0.115 C 
ENDROOT
BRANCH   5  20
ATOM     20  C   UNL d   1     129.160 121.306 171.449  0.00  0.00     0.000 C 
ATOM     21  C   UNL d   1     128.951 120.189 172.479  0.00  0.00     0.000 C 
BRANCH  20  22
ATOM     22  C   UNL d   1     130.565 121.193 170.789  0.00  0.00     0.000 C 
BRANCH  22  23
ATOM     23  C   UNL d   1     130.628 120.971 169.270  0.00  0.00     0.000 C 
BRANCH  23  24
ATOM     24  C   UNL d   1     129.441 120.229 168.642  0.00  0.00     0.000 C 
BRANCH  24  25
ATOM     25  C   UNL d   1     129.610 118.704 168.512  0.00  0.00     0.000 C 
ATOM     26  C   UNL d   1     128.990 117.957 169.697  0.00  0.00     0.000 C 
ATOM     27  C   UNL d   1     128.979 118.215 167.205  0.00  0.00     0.000 C 
ENDBRANCH  24  25
ENDBRANCH  23  24
ENDBRANCH  22  23
ENDBRANCH  20  22
ENDBRANCH   5  20
BRANCH  19  28
ATOM     28  O   UNL d   1     122.848 130.836 171.597  0.00  0.00    -0.385 OA
ATOM     29  H   UNL d   1     122.022 130.428 171.276  0.00  0.00     0.210 HD
ENDBRANCH  19  28
TORSDOF 6
ENDMDL
MODEL 11
REMARK VINA RESULT:    -7.250     30.374     32.921
REMARK INTER + INTRA:         -11.278
REMARK INTER:                  -9.614
REMARK INTRA:                  -1.664
REMARK UNBOUND:                -1.697
REMARK  6 active torsions:
REMARK  status: ('A' for Active; 'I' for Inactive)
REMARK    1  A    between atoms: O_1  and  C_22 
REMARK    2  A    between atoms: C_6  and  C_13 
REMARK    3  A    between atoms: C_13  and  C_21 
REMARK    4  A    between atoms: C_21  and  C_24 
REMARK    5  A    between atoms: C_24  and  C_25 
REMARK    6  A    between atoms: C_25  and  C_26 
ROOT
ATOM      1  C   UNL d   1     105.993 146.475 184.853  0.00  0.00     0.000 C 
ATOM      2  C   UNL d   1     106.714 147.836 184.673  0.00  0.00     0.000 C 
ATOM      3  C   UNL d   1     107.706 147.817 183.509  0.00  0.00     0.005 C 
ATOM      4  C   UNL d   1     106.956 147.501 182.182  0.00  0.00     0.004 C 
ATOM      5  C   UNL d   1     105.199 146.727 186.174  0.00  0.00     0.000 C 
ATOM      6  C   UNL d   1     105.113 146.323 183.597  0.00  0.00     0.000 C 
ATOM      7  C   UNL d   1     107.968 147.357 180.975  0.00  0.00     0.015 C 
ATOM      8  C   UNL d   1     107.245 148.151 186.059  0.00  0.00     0.000 C 
ATOM      9  C   UNL d   1     105.950 146.319 182.306  0.00  0.00     0.000 C 
ATOM     10  C   UNL d   1     106.121 147.685 186.988  0.00  0.00     0.000 C 
ATOM     11  C   UNL d   1     108.469 149.143 183.384  0.00  0.00     0.025 C 
ATOM     12  C   UNL d   1     106.990 145.298 184.997  0.00  0.00     0.000 C 
ATOM     13  C   UNL d   1     109.042 148.453 181.035  0.00  0.00    -0.047 C 
ATOM     14  C   UNL d   1     107.172 147.509 179.647  0.00  0.00     0.006 C 
ATOM     15  C   UNL d   1     109.232 149.248 182.100  0.00  0.00    -0.035 C 
ATOM     16  C   UNL d   1     108.676 145.980 180.996  0.00  0.00     0.004 C 
ATOM     17  C   UNL d   1     109.904 148.622 179.798  0.00  0.00     0.051 C 
ATOM     18  C   UNL d   1     108.050 147.635 178.401  0.00  0.00     0.030 C 
ATOM     19  C   UNL d   1     109.059 148.772 178.536  0.00  0.00     0.115 C 
ENDROOT
BRANCH   5  20
ATOM     20  C   UNL d   1     104.717 145.515 187.043  0.00  0.00     0.000 C 
ATOM     21  C   UNL d   1     103.234 145.607 187.424  0.00  0.00     0.000 C 
BRANCH  20  22
ATOM     22  C   UNL d   1     105.609 145.403 188.314  0.00  0.00     0.000 C 
BRANCH  22  23
ATOM     23  C   UNL d   1     106.254 144.043 188.620  0.00  0.00     0.000 C 
BRANCH  23  24
ATOM     24  C   UNL d   1     107.785 143.986 188.545  0.00  0.00     0.000 C 
BRANCH  24  25
ATOM     25  C   UNL d   1     108.491 145.348 188.412  0.00  0.00     0.000 C 
ATOM     26  C   UNL d   1     108.988 145.867 189.765  0.00  0.00     0.000 C 
ATOM     27  C   UNL d   1     109.666 145.239 187.437  0.00  0.00     0.000 C 
ENDBRANCH  24  25
ENDBRANCH  23  24
ENDBRANCH  22  23
ENDBRANCH  20  22
ENDBRANCH   5  20
BRANCH  19  28
ATOM     28  O   UNL d   1     109.923 148.774 177.401  0.00  0.00    -0.385 OA
ATOM     29  H   UNL d   1     109.537 149.377 176.740  0.00  0.00     0.210 HD
ENDBRANCH  19  28
TORSDOF 6
ENDMDL
MODEL 12
REMARK VINA RESULT:    -7.096      3.170      8.571
REMARK INTER + INTRA:         -11.074
REMARK INTER:                 -10.098
REMARK INTRA:                  -0.976
REMARK UNBOUND:                -1.697
REMARK  6 active torsions:
REMARK  status: ('A' for Active; 'I' for Inactive)
REMARK    1  A    between atoms: O_1  and  C_22 
REMARK    2  A    between atoms: C_6  and  C_13 
REMARK    3  A    between atoms: C_13  and  C_21 
REMARK    4  A    between atoms: C_21  and  C_24 
REMARK    5  A    between atoms: C_24  and  C_25 
REMARK    6  A    between atoms: C_25  and  C_26 
ROOT
ATOM      1  C   UNL d   1     129.235 124.228 170.822  0.00  0.00     0.000 C 
ATOM      2  C   UNL d   1     127.867 124.173 170.095  0.00  0.00     0.000 C 
ATOM      3  C   UNL d   1     126.807 125.029 170.789  0.00  0.00     0.005 C 
ATOM      4  C   UNL d   1     127.265 126.515 170.819  0.00  0.00     0.004 C 
ATOM      5  C   UNL d   1     130.047 123.162 170.020  0.00  0.00     0.000 C 
ATOM      6  C   UNL d   1     129.725 125.678 170.637  0.00  0.00     0.000 C 
ATOM      7  C   UNL d   1     126.246 127.410 171.634  0.00  0.00     0.015 C 
ATOM      8  C   UNL d   1     127.599 122.687 169.941  0.00  0.00     0.000 C 
ATOM      9  C   UNL d   1     128.749 126.696 171.252  0.00  0.00     0.000 C 
ATOM     10  C   UNL d   1     128.976 122.106 169.611  0.00  0.00     0.000 C 
ATOM     11  C   UNL d   1     125.437 124.910 170.106  0.00  0.00     0.025 C 
ATOM     12  C   UNL d   1     129.118 123.853 172.321  0.00  0.00     0.000 C 
ATOM     13  C   UNL d   1     124.798 127.036 171.286  0.00  0.00    -0.047 C 
ATOM     14  C   UNL d   1     126.485 128.899 171.248  0.00  0.00     0.006 C 
ATOM     15  C   UNL d   1     124.463 125.938 170.590  0.00  0.00    -0.035 C 
ATOM     16  C   UNL d   1     126.442 127.236 173.160  0.00  0.00     0.004 C 
ATOM     17  C   UNL d   1     123.721 127.991 171.763  0.00  0.00     0.051 C 
ATOM     18  C   UNL d   1     125.416 129.861 171.771  0.00  0.00     0.030 C 
ATOM     19  C   UNL d   1     124.015 129.430 171.344  0.00  0.00     0.115 C 
ENDROOT
BRANCH   5  20
ATOM     20  C   UNL d   1     131.306 122.486 170.665  0.00  0.00     0.000 C 
ATOM     21  C   UNL d   1     132.604 122.802 169.910  0.00  0.00     0.000 C 
BRANCH  20  22
ATOM     22  C   UNL d   1     131.078 120.949 170.754  0.00  0.00     0.000 C 
BRANCH  22  23
ATOM     23  C   UNL d   1     131.761 120.060 169.704  0.00  0.00     0.000 C 
BRANCH  23  24
ATOM     24  C   UNL d   1     131.110 118.697 169.442  0.00  0.00     0.000 C 
BRANCH  24  25
ATOM     25  C   UNL d   1     129.571 118.684 169.465  0.00  0.00     0.000 C 
ATOM     26  C   UNL d   1     128.979 118.671 168.053  0.00  0.00     0.000 C 
ATOM     27  C   UNL d   1     129.067 117.470 170.250  0.00  0.00     0.000 C 
ENDBRANCH  24  25
ENDBRANCH  23  24
ENDBRANCH  22  23
ENDBRANCH  20  22
ENDBRANCH   5  20
BRANCH  19  28
ATOM     28  O   UNL d   1     123.052 130.291 171.949  0.00  0.00    -0.385 OA
ATOM     29  H   UNL d   1     122.484 130.640 171.238  0.00  0.00     0.210 HD
ENDBRANCH  19  28
TORSDOF 6
ENDMDL
MODEL 13
REMARK VINA RESULT:    -7.078     32.229     34.314
REMARK INTER + INTRA:         -11.050
REMARK INTER:                 -10.455
REMARK INTRA:                  -0.595
REMARK UNBOUND:                -1.697
REMARK  6 active torsions:
REMARK  status: ('A' for Active; 'I' for Inactive)
REMARK    1  A    between atoms: O_1  and  C_22 
REMARK    2  A    between atoms: C_6  and  C_13 
REMARK    3  A    between atoms: C_13  and  C_21 
REMARK    4  A    between atoms: C_21  and  C_24 
REMARK    5  A    between atoms: C_24  and  C_25 
REMARK    6  A    between atoms: C_25  and  C_26 
ROOT
ATOM      1  C   UNL d   1     128.088 141.106 200.505  0.00  0.00     0.000 C 
ATOM      2  C   UNL d   1     128.937 140.089 201.310  0.00  0.00     0.000 C 
ATOM      3  C   UNL d   1     130.412 140.491 201.377  0.00  0.00     0.005 C 
ATOM      4  C   UNL d   1     130.550 141.876 202.072  0.00  0.00     0.004 C 
ATOM      5  C   UNL d   1     126.708 140.375 200.457  0.00  0.00     0.000 C 
ATOM      6  C   UNL d   1     128.100 142.393 201.352  0.00  0.00     0.000 C 
ATOM      7  C   UNL d   1     132.050 142.376 202.054  0.00  0.00     0.015 C 
ATOM      8  C   UNL d   1     128.589 138.751 200.686  0.00  0.00     0.000 C 
ATOM      9  C   UNL d   1     129.527 142.931 201.558  0.00  0.00     0.000 C 
ATOM     10  C   UNL d   1     127.087 138.863 200.411  0.00  0.00     0.000 C 
ATOM     11  C   UNL d   1     131.259 139.442 202.112  0.00  0.00     0.025 C 
ATOM     12  C   UNL d   1     128.657 141.352 199.085  0.00  0.00     0.000 C 
ATOM     13  C   UNL d   1     133.010 141.226 202.388  0.00  0.00    -0.047 C 
ATOM     14  C   UNL d   1     132.209 143.489 203.131  0.00  0.00     0.006 C 
ATOM     15  C   UNL d   1     132.635 139.937 202.431  0.00  0.00    -0.035 C 
ATOM     16  C   UNL d   1     132.436 142.945 200.666  0.00  0.00     0.004 C 
ATOM     17  C   UNL d   1     134.446 141.609 202.691  0.00  0.00     0.051 C 
ATOM     18  C   UNL d   1     133.658 143.900 203.397  0.00  0.00     0.030 C 
ATOM     19  C   UNL d   1     134.527 142.698 203.759  0.00  0.00     0.115 C 
ENDROOT
BRANCH   5  20
ATOM     20  C   UNL d   1     125.664 140.741 199.346  0.00  0.00     0.000 C 
ATOM     21  C   UNL d   1     125.255 142.219 199.378  0.00  0.00     0.000 C 
BRANCH  20  22
ATOM     22  C   UNL d   1     124.418 139.819 199.483  0.00  0.00     0.000 C 
BRANCH  22  23
ATOM     23  C   UNL d   1     123.205 140.361 200.253  0.00  0.00     0.000 C 
BRANCH  23  24
ATOM     24  C   UNL d   1     121.852 140.274 199.537  0.00  0.00     0.000 C 
BRANCH  24  25
ATOM     25  C   UNL d   1     120.707 141.072 200.187  0.00  0.00     0.000 C 
ATOM     26  C   UNL d   1     119.613 140.154 200.740  0.00  0.00     0.000 C 
ATOM     27  C   UNL d   1     121.255 141.958 201.309  0.00  0.00     0.000 C 
ENDBRANCH  24  25
ENDBRANCH  23  24
ENDBRANCH  22  23
ENDBRANCH  20  22
ENDBRANCH   5  20
BRANCH  19  28
ATOM     28  O   UNL d   1     135.884 143.116 203.886  0.00  0.00    -0.385 OA
ATOM     29  H   UNL d   1     136.379 142.383 204.295  0.00  0.00     0.210 HD
ENDBRANCH  19  28
TORSDOF 6
ENDMDL
MODEL 14
REMARK VINA RESULT:    -7.039     30.855     33.006
REMARK INTER + INTRA:         -10.999
REMARK INTER:                 -10.088
REMARK INTRA:                  -0.911
REMARK UNBOUND:                -1.697
REMARK  6 active torsions:
REMARK  status: ('A' for Active; 'I' for Inactive)
REMARK    1  A    between atoms: O_1  and  C_22 
REMARK    2  A    between atoms: C_6  and  C_13 
REMARK    3  A    between atoms: C_13  and  C_21 
REMARK    4  A    between atoms: C_21  and  C_24 
REMARK    5  A    between atoms: C_24  and  C_25 
REMARK    6  A    between atoms: C_25  and  C_26 
ROOT
ATOM      1  C   UNL d   1     125.973 139.234 199.966  0.00  0.00     0.000 C 
ATOM      2  C   UNL d   1     126.806 138.326 200.907  0.00  0.00     0.000 C 
ATOM      3  C   UNL d   1     128.309 138.583 200.780  0.00  0.00     0.005 C 
ATOM      4  C   UNL d   1     128.624 140.061 201.149  0.00  0.00     0.004 C 
ATOM      5  C   UNL d   1     124.539 138.651 200.176  0.00  0.00     0.000 C 
ATOM      6  C   UNL d   1     126.170 140.661 200.514  0.00  0.00     0.000 C 
ATOM      7  C   UNL d   1     130.153 140.393 200.915  0.00  0.00     0.015 C 
ATOM      8  C   UNL d   1     126.292 136.929 200.612  0.00  0.00     0.000 C 
ATOM      9  C   UNL d   1     127.649 141.084 200.496  0.00  0.00     0.000 C 
ATOM     10  C   UNL d   1     124.786 137.132 200.428  0.00  0.00     0.000 C 
ATOM     11  C   UNL d   1     129.130 137.629 201.658  0.00  0.00     0.025 C 
ATOM     12  C   UNL d   1     126.428 139.123 198.489  0.00  0.00     0.000 C 
ATOM     13  C   UNL d   1     131.041 139.246 201.417  0.00  0.00    -0.047 C 
ATOM     14  C   UNL d   1     130.502 141.683 201.714  0.00  0.00     0.006 C 
ATOM     15  C   UNL d   1     130.566 138.039 201.764  0.00  0.00    -0.035 C 
ATOM     16  C   UNL d   1     130.455 140.621 199.413  0.00  0.00     0.004 C 
ATOM     17  C   UNL d   1     132.525 139.538 201.526  0.00  0.00     0.051 C 
ATOM     18  C   UNL d   1     131.998 141.993 201.780  0.00  0.00     0.030 C 
ATOM     19  C   UNL d   1     132.794 140.810 202.327  0.00  0.00     0.115 C 
ENDROOT
BRANCH   5  20
ATOM     20  C   UNL d   1     123.431 138.882 199.091  0.00  0.00     0.000 C 
ATOM     21  C   UNL d   1     122.880 140.313 199.099  0.00  0.00     0.000 C 
BRANCH  20  22
ATOM     22  C   UNL d   1     122.287 137.847 199.293  0.00  0.00     0.000 C 
BRANCH  22  23
ATOM     23  C   UNL d   1     120.993 138.330 199.967  0.00  0.00     0.000 C 
BRANCH  23  24
ATOM     24  C   UNL d   1     121.111 138.755 201.436  0.00  0.00     0.000 C 
BRANCH  24  25
ATOM     25  C   UNL d   1     120.146 139.870 201.880  0.00  0.00     0.000 C 
ATOM     26  C   UNL d   1     120.867 141.208 202.067  0.00  0.00     0.000 C 
ATOM     27  C   UNL d   1     119.018 140.028 200.857  0.00  0.00     0.000 C 
ENDBRANCH  24  25
ENDBRANCH  23  24
ENDBRANCH  22  23
ENDBRANCH  20  22
ENDBRANCH   5  20
BRANCH  19  28
ATOM     28  O   UNL d   1     134.187 141.108 202.262  0.00  0.00    -0.385 OA
ATOM     29  H   UNL d   1     134.668 140.260 202.275  0.00  0.00     0.210 HD
ENDBRANCH  19  28
TORSDOF 6
ENDMDL
MODEL 15
REMARK VINA RESULT:    -7.025     29.467     33.037
REMARK INTER + INTRA:         -10.980
REMARK INTER:                  -9.810
REMARK INTRA:                  -1.170
REMARK UNBOUND:                -1.697
REMARK  6 active torsions:
REMARK  status: ('A' for Active; 'I' for Inactive)
REMARK    1  A    between atoms: O_1  and  C_22 
REMARK    2  A    between atoms: C_6  and  C_13 
REMARK    3  A    between atoms: C_13  and  C_21 
REMARK    4  A    between atoms: C_21  and  C_24 
REMARK    5  A    between atoms: C_24  and  C_25 
REMARK    6  A    between atoms: C_25  and  C_26 
ROOT
ATOM      1  C   UNL d   1     125.306 139.071 199.501  0.00  0.00     0.000 C 
ATOM      2  C   UNL d   1     125.499 140.608 199.446  0.00  0.00     0.000 C 
ATOM      3  C   UNL d   1     126.616 141.086 200.375  0.00  0.00     0.005 C 
ATOM      4  C   UNL d   1     127.963 140.425 199.964  0.00  0.00     0.004 C 
ATOM      5  C   UNL d   1     124.031 138.895 198.615  0.00  0.00     0.000 C 
ATOM      6  C   UNL d   1     126.595 138.486 198.891  0.00  0.00     0.000 C 
ATOM      7  C   UNL d   1     129.118 140.805 200.977  0.00  0.00     0.015 C 
ATOM      8  C   UNL d   1     124.102 141.157 199.665  0.00  0.00     0.000 C 
ATOM      9  C   UNL d   1     127.845 138.898 199.687  0.00  0.00     0.000 C 
ATOM     10  C   UNL d   1     123.210 140.193 198.880  0.00  0.00     0.000 C 
ATOM     11  C   UNL d   1     126.751 142.615 200.371  0.00  0.00     0.025 C 
ATOM     12  C   UNL d   1     125.076 138.560 200.946  0.00  0.00     0.000 C 
ATOM     13  C   UNL d   1     129.047 142.294 201.346  0.00  0.00    -0.047 C 
ATOM     14  C   UNL d   1     130.485 140.525 200.289  0.00  0.00     0.006 C 
ATOM     15  C   UNL d   1     128.002 143.083 201.047  0.00  0.00    -0.035 C 
ATOM     16  C   UNL d   1     129.017 139.975 202.280  0.00  0.00     0.004 C 
ATOM     17  C   UNL d   1     130.248 142.868 202.073  0.00  0.00     0.051 C 
ATOM     18  C   UNL d   1     131.694 141.069 201.053  0.00  0.00     0.030 C 
ATOM     19  C   UNL d   1     131.552 142.562 201.340  0.00  0.00     0.115 C 
ENDROOT
BRANCH   5  20
ATOM     20  C   UNL d   1     123.144 137.611 198.763  0.00  0.00     0.000 C 
ATOM     21  C   UNL d   1     122.872 136.917 197.423  0.00  0.00     0.000 C 
BRANCH  20  22
ATOM     22  C   UNL d   1     121.811 137.983 199.474  0.00  0.00     0.000 C 
BRANCH  22  23
ATOM     23  C   UNL d   1     121.739 137.816 200.999  0.00  0.00     0.000 C 
BRANCH  23  24
ATOM     24  C   UNL d   1     120.828 138.797 201.747  0.00  0.00     0.000 C 
BRANCH  24  25
ATOM     25  C   UNL d   1     120.402 140.043 200.949  0.00  0.00     0.000 C 
ATOM     26  C   UNL d   1     118.931 139.975 200.528  0.00  0.00     0.000 C 
ATOM     27  C   UNL d   1     120.645 141.307 201.778  0.00  0.00     0.000 C 
ENDBRANCH  24  25
ENDBRANCH  23  24
ENDBRANCH  22  23
ENDBRANCH  20  22
ENDBRANCH   5  20
BRANCH  19  28
ATOM     28  O   UNL d   1     132.645 142.993 202.148  0.00  0.00    -0.385 OA
ATOM     29  H   UNL d   1     132.927 142.233 202.689  0.00  0.00     0.210 HD
ENDBRANCH  19  28
TORSDOF 6
ENDMDL
MODEL 16
REMARK VINA RESULT:    -6.977     28.499     31.628
REMARK INTER + INTRA:         -10.917
REMARK INTER:                 -10.133
REMARK INTRA:                  -0.784
REMARK UNBOUND:                -1.697
REMARK  6 active torsions:
REMARK  status: ('A' for Active; 'I' for Inactive)
REMARK    1  A    between atoms: O_1  and  C_22 
REMARK    2  A    between atoms: C_6  and  C_13 
REMARK    3  A    between atoms: C_13  and  C_21 
REMARK    4  A    between atoms: C_21  and  C_24 
REMARK    5  A    between atoms: C_24  and  C_25 
REMARK    6  A    between atoms: C_25  and  C_26 
ROOT
ATOM      1  C   UNL d   1     126.112 141.803 198.572  0.00  0.00     0.000 C 
ATOM      2  C   UNL d   1     125.312 141.516 197.276  0.00  0.00     0.000 C 
ATOM      3  C   UNL d   1     124.822 140.068 197.205  0.00  0.00     0.005 C 
ATOM      4  C   UNL d   1     123.888 139.768 198.412  0.00  0.00     0.004 C 
ATOM      5  C   UNL d   1     126.616 143.256 198.300  0.00  0.00     0.000 C 
ATOM      6  C   UNL d   1     125.079 141.687 199.710  0.00  0.00     0.000 C 
ATOM      7  C   UNL d   1     123.458 138.246 198.435  0.00  0.00     0.015 C 
ATOM      8  C   UNL d   1     126.221 142.018 196.170  0.00  0.00     0.000 C 
ATOM      9  C   UNL d   1     124.445 140.286 199.770  0.00  0.00     0.000 C 
ATOM     10  C   UNL d   1     126.827 143.295 196.756  0.00  0.00     0.000 C 
ATOM     11  C   UNL d   1     124.096 139.772 195.885  0.00  0.00     0.025 C 
ATOM     12  C   UNL d   1     127.288 140.813 198.767  0.00  0.00     0.000 C 
ATOM     13  C   UNL d   1     123.104 137.761 197.022  0.00  0.00    -0.047 C 
ATOM     14  C   UNL d   1     122.200 138.106 199.341  0.00  0.00     0.006 C 
ATOM     15  C   UNL d   1     123.374 138.462 195.909  0.00  0.00    -0.035 C 
ATOM     16  C   UNL d   1     124.593 137.349 198.988  0.00  0.00     0.004 C 
ATOM     17  C   UNL d   1     122.402 136.420 196.923  0.00  0.00     0.051 C 
ATOM     18  C   UNL d   1     121.525 136.735 199.268  0.00  0.00     0.030 C 
ATOM     19  C   UNL d   1     121.176 136.356 197.831  0.00  0.00     0.115 C 
ENDROOT
BRANCH   5  20
ATOM     20  C   UNL d   1     127.866 143.809 199.068  0.00  0.00     0.000 C 
ATOM     21  C   UNL d   1     129.178 143.154 198.619  0.00  0.00     0.000 C 
BRANCH  20  22
ATOM     22  C   UNL d   1     127.653 143.630 200.599  0.00  0.00     0.000 C 
BRANCH  22  23
ATOM     23  C   UNL d   1     128.755 142.918 201.398  0.00  0.00     0.000 C 
BRANCH  23  24
ATOM     24  C   UNL d   1     128.335 141.651 202.153  0.00  0.00     0.000 C 
BRANCH  24  25
ATOM     25  C   UNL d   1     129.367 140.508 202.150  0.00  0.00     0.000 C 
ATOM     26  C   UNL d   1     128.737 139.171 201.749  0.00  0.00     0.000 C 
ATOM     27  C   UNL d   1     130.520 140.843 201.201  0.00  0.00     0.000 C 
ENDBRANCH  24  25
ENDBRANCH  23  24
ENDBRANCH  22  23
ENDBRANCH  20  22
ENDBRANCH   5  20
BRANCH  19  28
ATOM     28  O   UNL d   1     120.655 135.028 197.806  0.00  0.00    -0.385 OA
ATOM     29  H   UNL d   1     121.344 134.451 197.428  0.00  0.00     0.210 HD
ENDBRANCH  19  28
TORSDOF 6
ENDMDL
MODEL 17
REMARK VINA RESULT:    -6.965      3.591      8.348
REMARK INTER + INTRA:         -10.902
REMARK INTER:                  -9.898
REMARK INTRA:                  -1.003
REMARK UNBOUND:                -1.697
REMARK  6 active torsions:
REMARK  status: ('A' for Active; 'I' for Inactive)
REMARK    1  A    between atoms: O_1  and  C_22 
REMARK    2  A    between atoms: C_6  and  C_13 
REMARK    3  A    between atoms: C_13  and  C_21 
REMARK    4  A    between atoms: C_21  and  C_24 
REMARK    5  A    between atoms: C_24  and  C_25 
REMARK    6  A    between atoms: C_25  and  C_26 
ROOT
ATOM      1  C   UNL d   1     127.810 123.414 171.366  0.00  0.00     0.000 C 
ATOM      2  C   UNL d   1     126.634 123.590 172.360  0.00  0.00     0.000 C 
ATOM      3  C   UNL d   1     126.294 125.061 172.603  0.00  0.00     0.005 C 
ATOM      4  C   UNL d   1     125.884 125.736 171.262  0.00  0.00     0.004 C 
ATOM      5  C   UNL d   1     128.041 121.871 171.441  0.00  0.00     0.000 C 
ATOM      6  C   UNL d   1     127.265 123.914 170.014  0.00  0.00     0.000 C 
ATOM      7  C   UNL d   1     125.639 127.287 171.456  0.00  0.00     0.015 C 
ATOM      8  C   UNL d   1     127.038 122.743 173.553  0.00  0.00     0.000 C 
ATOM      9  C   UNL d   1     126.833 125.389 170.079  0.00  0.00     0.000 C 
ATOM     10  C   UNL d   1     127.686 121.512 172.916  0.00  0.00     0.000 C 
ATOM     11  C   UNL d   1     125.179 125.228 173.645  0.00  0.00     0.025 C 
ATOM     12  C   UNL d   1     129.069 124.206 171.801  0.00  0.00     0.000 C 
ATOM     13  C   UNL d   1     124.856 127.556 172.748  0.00  0.00    -0.047 C 
ATOM     14  C   UNL d   1     124.805 127.805 170.248  0.00  0.00     0.006 C 
ATOM     15  C   UNL d   1     124.643 126.625 173.693  0.00  0.00    -0.035 C 
ATOM     16  C   UNL d   1     126.978 128.062 171.527  0.00  0.00     0.004 C 
ATOM     17  C   UNL d   1     124.298 128.955 172.922  0.00  0.00     0.051 C 
ATOM     18  C   UNL d   1     124.284 129.234 170.414  0.00  0.00     0.030 C 
ATOM     19  C   UNL d   1     123.487 129.396 171.706  0.00  0.00     0.115 C 
ENDROOT
BRANCH   5  20
ATOM     20  C   UNL d   1     129.423 121.263 171.017  0.00  0.00     0.000 C 
ATOM     21  C   UNL d   1     129.700 121.407 169.515  0.00  0.00     0.000 C 
BRANCH  20  22
ATOM     22  C   UNL d   1     129.485 119.770 171.450  0.00  0.00     0.000 C 
BRANCH  22  23
ATOM     23  C   UNL d   1     128.594 118.767 170.701  0.00  0.00     0.000 C 
BRANCH  23  24
ATOM     24  C   UNL d   1     128.101 117.561 171.510  0.00  0.00     0.000 C 
BRANCH  24  25
ATOM     25  C   UNL d   1     126.848 117.808 172.369  0.00  0.00     0.000 C 
ATOM     26  C   UNL d   1     125.810 116.696 172.198  0.00  0.00     0.000 C 
ATOM     27  C   UNL d   1     127.237 117.931 173.844  0.00  0.00     0.000 C 
ENDBRANCH  24  25
ENDBRANCH  23  24
ENDBRANCH  22  23
ENDBRANCH  20  22
ENDBRANCH   5  20
BRANCH  19  28
ATOM     28  O   UNL d   1     123.123 130.765 171.868  0.00  0.00    -0.385 OA
ATOM     29  H   UNL d   1     122.301 130.789 172.391  0.00  0.00     0.210 HD
ENDBRANCH  19  28
TORSDOF 6
ENDMDL
MODEL 18
REMARK VINA RESULT:    -6.947      5.498      9.215
REMARK INTER + INTRA:         -10.878
REMARK INTER:                  -9.686
REMARK INTRA:                  -1.192
REMARK UNBOUND:                -1.697
REMARK  6 active torsions:
REMARK  status: ('A' for Active; 'I' for Inactive)
REMARK    1  A    between atoms: O_1  and  C_22 
REMARK    2  A    between atoms: C_6  and  C_13 
REMARK    3  A    between atoms: C_13  and  C_21 
REMARK    4  A    between atoms: C_21  and  C_24 
REMARK    5  A    between atoms: C_24  and  C_25 
REMARK    6  A    between atoms: C_25  and  C_26 
ROOT
ATOM      1  C   UNL d   1     129.882 118.367 170.350  0.00  0.00     0.000 C 
ATOM      2  C   UNL d   1     129.209 117.444 169.302  0.00  0.00     0.000 C 
ATOM      3  C   UNL d   1     129.904 116.086 169.193  0.00  0.00     0.005 C 
ATOM      4  C   UNL d   1     129.853 115.356 170.566  0.00  0.00     0.004 C 
ATOM      5  C   UNL d   1     129.096 119.699 170.129  0.00  0.00     0.000 C 
ATOM      6  C   UNL d   1     129.616 117.686 171.707  0.00  0.00     0.000 C 
ATOM      7  C   UNL d   1     130.666 113.999 170.521  0.00  0.00     0.015 C 
ATOM      8  C   UNL d   1     129.129 118.308 168.057  0.00  0.00     0.000 C 
ATOM      9  C   UNL d   1     130.222 116.273 171.768  0.00  0.00     0.000 C 
ATOM     10  C   UNL d   1     128.774 119.693 168.604  0.00  0.00     0.000 C 
ATOM     11  C   UNL d   1     129.279 115.207 168.100  0.00  0.00     0.025 C 
ATOM     12  C   UNL d   1     131.399 118.544 170.088  0.00  0.00     0.000 C 
ATOM     13  C   UNL d   1     130.389 113.244 169.213  0.00  0.00    -0.047 C 
ATOM     14  C   UNL d   1     130.208 113.114 171.716  0.00  0.00     0.006 C 
ATOM     15  C   UNL d   1     129.753 113.789 168.163  0.00  0.00    -0.035 C 
ATOM     16  C   UNL d   1     132.190 114.254 170.623  0.00  0.00     0.004 C 
ATOM     17  C   UNL d   1     130.863 111.805 169.150  0.00  0.00     0.051 C 
ATOM     18  C   UNL d   1     130.728 111.676 171.666  0.00  0.00     0.030 C 
ATOM     19  C   UNL d   1     130.372 110.995 170.347  0.00  0.00     0.115 C 
ENDROOT
BRANCH   5  20
ATOM     20  C   UNL d   1     129.722 121.063 170.580  0.00  0.00     0.000 C 
ATOM     21  C   UNL d   1     129.074 121.624 171.852  0.00  0.00     0.000 C 
BRANCH  20  22
ATOM     22  C   UNL d   1     129.626 122.087 169.413  0.00  0.00     0.000 C 
BRANCH  22  23
ATOM     23  C   UNL d   1     130.709 123.173 169.319  0.00  0.00     0.000 C 
BRANCH  23  24
ATOM     24  C   UNL d   1     131.892 123.036 170.285  0.00  0.00     0.000 C 
BRANCH  24  25
ATOM     25  C   UNL d   1     133.223 122.606 169.642  0.00  0.00     0.000 C 
ATOM     26  C   UNL d   1     133.912 121.496 170.442  0.00  0.00     0.000 C 
ATOM     27  C   UNL d   1     132.985 122.136 168.204  0.00  0.00     0.000 C 
ENDBRANCH  24  25
ENDBRANCH  23  24
ENDBRANCH  22  23
ENDBRANCH  20  22
ENDBRANCH   5  20
BRANCH  19  28
ATOM     28  O   UNL d   1     130.975 109.703 170.306  0.00  0.00    -0.385 OA
ATOM     29  H   UNL d   1     131.939 109.832 170.240  0.00  0.00     0.210 HD
ENDBRANCH  19  28
TORSDOF 6
ENDMDL
MODEL 19
REMARK VINA RESULT:    -6.944     25.948     30.845
REMARK INTER + INTRA:         -10.874
REMARK INTER:                  -9.382
REMARK INTRA:                  -1.492
REMARK UNBOUND:                -1.697
REMARK  6 active torsions:
REMARK  status: ('A' for Active; 'I' for Inactive)
REMARK    1  A    between atoms: O_1  and  C_22 
REMARK    2  A    between atoms: C_6  and  C_13 
REMARK    3  A    between atoms: C_13  and  C_21 
REMARK    4  A    between atoms: C_21  and  C_24 
REMARK    5  A    between atoms: C_24  and  C_25 
REMARK    6  A    between atoms: C_25  and  C_26 
ROOT
ATOM      1  C   UNL d   1     127.278 141.804 198.939  0.00  0.00     0.000 C 
ATOM      2  C   UNL d   1     127.612 142.032 197.442  0.00  0.00     0.000 C 
ATOM      3  C   UNL d   1     127.255 140.821 196.578  0.00  0.00     0.005 C 
ATOM      4  C   UNL d   1     125.731 140.528 196.683  0.00  0.00     0.004 C 
ATOM      5  C   UNL d   1     127.887 143.091 199.582  0.00  0.00     0.000 C 
ATOM      6  C   UNL d   1     125.740 141.727 198.996  0.00  0.00     0.000 C 
ATOM      7  C   UNL d   1     125.347 139.211 195.895  0.00  0.00     0.015 C 
ATOM      8  C   UNL d   1     129.056 142.498 197.459  0.00  0.00     0.000 C 
ATOM      9  C   UNL d   1     125.192 140.570 198.142  0.00  0.00     0.000 C 
ATOM     10  C   UNL d   1     129.125 143.406 198.689  0.00  0.00     0.000 C 
ATOM     11  C   UNL d   1     127.657 141.025 195.110  0.00  0.00     0.025 C 
ATOM     12  C   UNL d   1     127.935 140.517 199.497  0.00  0.00     0.000 C 
ATOM     13  C   UNL d   1     126.071 139.158 194.542  0.00  0.00    -0.047 C 
ATOM     14  C   UNL d   1     123.811 139.222 195.641  0.00  0.00     0.006 C 
ATOM     15  C   UNL d   1     127.074 139.984 194.206  0.00  0.00    -0.035 C 
ATOM     16  C   UNL d   1     125.726 137.944 196.701  0.00  0.00     0.004 C 
ATOM     17  C   UNL d   1     125.588 138.110 193.558  0.00  0.00     0.051 C 
ATOM     18  C   UNL d   1     123.328 138.134 194.681  0.00  0.00     0.030 C 
ATOM     19  C   UNL d   1     124.076 138.183 193.352  0.00  0.00     0.115 C 
ENDROOT
BRANCH   5  20
ATOM     20  C   UNL d   1     128.256 143.107 201.105  0.00  0.00     0.000 C 
ATOM     21  C   UNL d   1     127.701 144.333 201.840  0.00  0.00     0.000 C 
BRANCH  20  22
ATOM     22  C   UNL d   1     129.802 143.021 201.263  0.00  0.00     0.000 C 
BRANCH  22  23
ATOM     23  C   UNL d   1     130.395 141.720 201.826  0.00  0.00     0.000 C 
BRANCH  23  24
ATOM     24  C   UNL d   1     131.793 141.338 201.324  0.00  0.00     0.000 C 
BRANCH  24  25
ATOM     25  C   UNL d   1     131.858 140.069 200.455  0.00  0.00     0.000 C 
ATOM     26  C   UNL d   1     130.864 139.003 200.925  0.00  0.00     0.000 C 
ATOM     27  C   UNL d   1     131.586 140.420 198.990  0.00  0.00     0.000 C 
ENDBRANCH  24  25
ENDBRANCH  23  24
ENDBRANCH  22  23
ENDBRANCH  20  22
ENDBRANCH   5  20
BRANCH  19  28
ATOM     28  O   UNL d   1     123.670 137.083 192.539  0.00  0.00    -0.385 OA
ATOM     29  H   UNL d   1     123.079 137.433 191.848  0.00  0.00     0.210 HD
ENDBRANCH  19  28
TORSDOF 6
ENDMDL
MODEL 20
REMARK VINA RESULT:    -6.902     30.029     32.588
REMARK INTER + INTRA:         -10.817
REMARK INTER:                  -9.629
REMARK INTRA:                  -1.188
REMARK UNBOUND:                -1.697
REMARK  6 active torsions:
REMARK  status: ('A' for Active; 'I' for Inactive)
REMARK    1  A    between atoms: O_1  and  C_22 
REMARK    2  A    between atoms: C_6  and  C_13 
REMARK    3  A    between atoms: C_13  and  C_21 
REMARK    4  A    between atoms: C_21  and  C_24 
REMARK    5  A    between atoms: C_24  and  C_25 
REMARK    6  A    between atoms: C_25  and  C_26 
ROOT
ATOM      1  C   UNL d   1     127.647 140.469 199.626  0.00  0.00     0.000 C 
ATOM      2  C   UNL d   1     127.858 138.948 199.837  0.00  0.00     0.000 C 
ATOM      3  C   UNL d   1     126.558 138.227 200.201  0.00  0.00     0.005 C 
ATOM      4  C   UNL d   1     125.518 138.407 199.059  0.00  0.00     0.004 C 
ATOM      5  C   UNL d   1     129.121 140.955 199.443  0.00  0.00     0.000 C 
ATOM      6  C   UNL d   1     126.775 140.578 198.360  0.00  0.00     0.000 C 
ATOM      7  C   UNL d   1     124.122 137.774 199.454  0.00  0.00     0.015 C 
ATOM      8  C   UNL d   1     129.015 138.873 200.815  0.00  0.00     0.000 C 
ATOM      9  C   UNL d   1     125.421 139.868 198.533  0.00  0.00     0.000 C 
ATOM     10  C   UNL d   1     129.946 139.998 200.355  0.00  0.00     0.000 C 
ATOM     11  C   UNL d   1     126.788 136.735 200.481  0.00  0.00     0.025 C 
ATOM     12  C   UNL d   1     126.968 141.141 200.846  0.00  0.00     0.000 C 
ATOM     13  C   UNL d   1     124.318 136.414 200.139  0.00  0.00    -0.047 C 
ATOM     14  C   UNL d   1     123.294 137.564 198.153  0.00  0.00     0.006 C 
ATOM     15  C   UNL d   1     125.509 135.963 200.565  0.00  0.00    -0.035 C 
ATOM     16  C   UNL d   1     123.340 138.698 200.419  0.00  0.00     0.004 C 
ATOM     17  C   UNL d   1     123.077 135.560 200.314  0.00  0.00     0.051 C 
ATOM     18  C   UNL d   1     122.020 136.739 198.348  0.00  0.00     0.030 C 
ATOM     19  C   UNL d   1     122.318 135.391 198.999  0.00  0.00     0.115 C 
ENDROOT
BRANCH   5  20
ATOM     20  C   UNL d   1     129.489 142.457 199.700  0.00  0.00     0.000 C 
ATOM     21  C   UNL d   1     129.811 143.220 198.409  0.00  0.00     0.000 C 
BRANCH  20  22
ATOM     22  C   UNL d   1     130.679 142.533 200.699  0.00  0.00     0.000 C 
BRANCH  22  23
ATOM     23  C   UNL d   1     130.393 143.042 202.119  0.00  0.00     0.000 C 
BRANCH  23  24
ATOM     24  C   UNL d   1     128.999 142.737 202.682  0.00  0.00     0.000 C 
BRANCH  24  25
ATOM     25  C   UNL d   1     128.190 143.962 203.144  0.00  0.00     0.000 C 
ATOM     26  C   UNL d   1     129.038 144.923 203.983  0.00  0.00     0.000 C 
ATOM     27  C   UNL d   1     127.617 144.702 201.932  0.00  0.00     0.000 C 
ENDBRANCH  24  25
ENDBRANCH  23  24
ENDBRANCH  22  23
ENDBRANCH  20  22
ENDBRANCH   5  20
BRANCH  19  28
ATOM     28  O   UNL d   1     121.091 134.712 199.262  0.00  0.00    -0.385 OA
ATOM     29  H   UNL d   1     120.387 135.385 199.304  0.00  0.00     0.210 HD
ENDBRANCH  19  28
TORSDOF 6
ENDMDL
