MODEL 1
REMARK VINA RESULT:    -7.973      0.000      0.000
REMARK INTER + INTRA:         -12.268
REMARK INTER:                 -10.537
REMARK INTRA:                  -1.732
REMARK UNBOUND:                -1.732
REMARK  6 active torsions:
REMARK  status: ('A' for Active; 'I' for Inactive)
REMARK    1  A    between atoms: O_1  and  C_22 
REMARK    2  A    between atoms: C_6  and  C_13 
REMARK    3  A    between atoms: C_13  and  C_21 
REMARK    4  A    between atoms: C_21  and  C_24 
REMARK    5  A    between atoms: C_24  and  C_25 
REMARK    6  A    between atoms: C_25  and  C_26 
ROOT
ATOM      1  C   UNL d   1     126.692 125.618 171.757  0.00  0.00     0.000 C 
ATOM      2  C   UNL d   1     128.070 125.961 171.135  0.00  0.00     0.000 C 
ATOM      3  C   UNL d   1     129.053 124.792 171.223  0.00  0.00     0.005 C 
ATOM      4  C   UNL d   1     128.481 123.564 170.457  0.00  0.00     0.004 C 
ATOM      5  C   UNL d   1     125.975 127.004 171.685  0.00  0.00     0.000 C 
ATOM      6  C   UNL d   1     126.096 124.540 170.831  0.00  0.00     0.000 C 
ATOM      7  C   UNL d   1     129.418 122.301 170.626  0.00  0.00     0.015 C 
ATOM      8  C   UNL d   1     128.453 127.269 171.802  0.00  0.00     0.000 C 
ATOM      9  C   UNL d   1     126.982 123.284 170.766  0.00  0.00     0.000 C 
ATOM     10  C   UNL d   1     127.129 128.033 171.881  0.00  0.00     0.000 C 
ATOM     11  C   UNL d   1     130.437 125.164 170.673  0.00  0.00     0.025 C 
ATOM     12  C   UNL d   1     126.817 125.111 173.216  0.00  0.00     0.000 C 
ATOM     13  C   UNL d   1     130.895 122.698 170.493  0.00  0.00    -0.047 C 
ATOM     14  C   UNL d   1     129.072 121.280 169.502  0.00  0.00     0.006 C 
ATOM     15  C   UNL d   1     131.323 123.971 170.492  0.00  0.00    -0.035 C 
ATOM     16  C   UNL d   1     129.216 121.632 172.008  0.00  0.00     0.004 C 
ATOM     17  C   UNL d   1     131.890 121.563 170.344  0.00  0.00     0.051 C 
ATOM     18  C   UNL d   1     130.057 120.116 169.389  0.00  0.00     0.030 C 
ATOM     19  C   UNL d   1     131.492 120.607 169.221  0.00  0.00     0.115 C 
ENDROOT
BRANCH   5  20
ATOM     20  C   UNL d   1     124.762 127.310 172.630  0.00  0.00     0.000 C 
ATOM     21  C   UNL d   1     123.411 126.948 172.002  0.00  0.00     0.000 C 
BRANCH  20  22
ATOM     22  C   UNL d   1     124.796 128.810 173.044  0.00  0.00     0.000 C 
BRANCH  22  23
ATOM     23  C   UNL d   1     124.984 129.140 174.532  0.00  0.00     0.000 C 
BRANCH  23  24
ATOM     24  C   UNL d   1     125.844 128.161 175.341  0.00  0.00     0.000 C 
BRANCH  24  25
ATOM     25  C   UNL d   1     127.235 128.683 175.745  0.00  0.00     0.000 C 
ATOM     26  C   UNL d   1     128.343 127.686 175.393  0.00  0.00     0.000 C 
ATOM     27  C   UNL d   1     127.511 130.026 175.065  0.00  0.00     0.000 C 
ENDBRANCH  24  25
ENDBRANCH  23  24
ENDBRANCH  22  23
ENDBRANCH  20  22
ENDBRANCH   5  20
BRANCH  19  28
ATOM     28  O   UNL d   1     132.379 119.490 169.234  0.00  0.00    -0.385 OA
ATOM     29  H   UNL d   1     133.123 119.699 168.640  0.00  0.00     0.210 HD
ENDBRANCH  19  28
TORSDOF 6
ENDMDL
MODEL 2
REMARK VINA RESULT:    -7.579      1.358      3.440
REMARK INTER + INTRA:         -11.748
REMARK INTER:                 -10.291
REMARK INTRA:                  -1.457
REMARK UNBOUND:                -1.732
REMARK  6 active torsions:
REMARK  status: ('A' for Active; 'I' for Inactive)
REMARK    1  A    between atoms: O_1  and  C_22 
REMARK    2  A    between atoms: C_6  and  C_13 
REMARK    3  A    between atoms: C_13  and  C_21 
REMARK    4  A    between atoms: C_21  and  C_24 
REMARK    5  A    between atoms: C_24  and  C_25 
REMARK    6  A    between atoms: C_25  and  C_26 
ROOT
ATOM      1  C   UNL d   1     128.568 126.388 173.053  0.00  0.00     0.000 C 
ATOM      2  C   UNL d   1     128.638 124.977 173.691  0.00  0.00     0.000 C 
ATOM      3  C   UNL d   1     128.923 123.886 172.658  0.00  0.00     0.005 C 
ATOM      4  C   UNL d   1     130.289 124.159 171.966  0.00  0.00     0.004 C 
ATOM      5  C   UNL d   1     128.109 127.249 174.273  0.00  0.00     0.000 C 
ATOM      6  C   UNL d   1     130.003 126.676 172.571  0.00  0.00     0.000 C 
ATOM      7  C   UNL d   1     130.561 123.115 170.809  0.00  0.00     0.015 C 
ATOM      8  C   UNL d   1     127.356 124.881 174.498  0.00  0.00     0.000 C 
ATOM      9  C   UNL d   1     130.480 125.642 171.536  0.00  0.00     0.000 C 
ATOM     10  C   UNL d   1     127.198 126.283 175.090  0.00  0.00     0.000 C 
ATOM     11  C   UNL d   1     128.915 122.485 173.286  0.00  0.00     0.025 C 
ATOM     12  C   UNL d   1     127.551 126.455 171.887  0.00  0.00     0.000 C 
ATOM     13  C   UNL d   1     130.168 121.699 171.252  0.00  0.00    -0.047 C 
ATOM     14  C   UNL d   1     132.083 123.133 170.481  0.00  0.00     0.006 C 
ATOM     15  C   UNL d   1     129.460 121.440 172.363  0.00  0.00    -0.035 C 
ATOM     16  C   UNL d   1     129.756 123.468 169.534  0.00  0.00     0.004 C 
ATOM     17  C   UNL d   1     130.635 120.560 170.366  0.00  0.00     0.051 C 
ATOM     18  C   UNL d   1     132.536 122.005 169.551  0.00  0.00     0.030 C 
ATOM     19  C   UNL d   1     132.135 120.635 170.092  0.00  0.00     0.115 C 
ENDROOT
BRANCH   5  20
ATOM     20  C   UNL d   1     127.415 128.635 174.038  0.00  0.00     0.000 C 
ATOM     21  C   UNL d   1     128.385 129.816 174.168  0.00  0.00     0.000 C 
BRANCH  20  22
ATOM     22  C   UNL d   1     126.221 128.788 175.023  0.00  0.00     0.000 C 
BRANCH  22  23
ATOM     23  C   UNL d   1     124.829 129.054 174.429  0.00  0.00     0.000 C 
BRANCH  23  24
ATOM     24  C   UNL d   1     124.200 127.904 173.633  0.00  0.00     0.000 C 
BRANCH  24  25
ATOM     25  C   UNL d   1     123.725 128.266 172.214  0.00  0.00     0.000 C 
ATOM     26  C   UNL d   1     124.690 129.231 171.517  0.00  0.00     0.000 C 
ATOM     27  C   UNL d   1     123.565 126.997 171.373  0.00  0.00     0.000 C 
ENDBRANCH  24  25
ENDBRANCH  23  24
ENDBRANCH  22  23
ENDBRANCH  20  22
ENDBRANCH   5  20
BRANCH  19  28
ATOM     28  O   UNL d   1     132.479 119.632 169.138  0.00  0.00    -0.385 OA
ATOM     29  H   UNL d   1     132.992 120.064 168.431  0.00  0.00     0.210 HD
ENDBRANCH  19  28
TORSDOF 6
ENDMDL
MODEL 3
REMARK VINA RESULT:    -7.278     49.651     51.107
REMARK INTER + INTRA:         -11.349
REMARK INTER:                 -10.271
REMARK INTRA:                  -1.078
REMARK UNBOUND:                -1.732
REMARK  6 active torsions:
REMARK  status: ('A' for Active; 'I' for Inactive)
REMARK    1  A    between atoms: O_1  and  C_22 
REMARK    2  A    between atoms: C_6  and  C_13 
REMARK    3  A    between atoms: C_13  and  C_21 
REMARK    4  A    between atoms: C_21  and  C_24 
REMARK    5  A    between atoms: C_24  and  C_25 
REMARK    6  A    between atoms: C_25  and  C_26 
ROOT
ATOM      1  C   UNL d   1     140.542 139.935 125.198  0.00  0.00     0.000 C 
ATOM      2  C   UNL d   1     141.751 139.067 125.632  0.00  0.00     0.000 C 
ATOM      3  C   UNL d   1     143.025 139.895 125.812  0.00  0.00     0.005 C 
ATOM      4  C   UNL d   1     142.801 140.975 126.910  0.00  0.00     0.004 C 
ATOM      5  C   UNL d   1     139.463 138.837 124.932  0.00  0.00     0.000 C 
ATOM      6  C   UNL d   1     140.248 140.840 126.411  0.00  0.00     0.000 C 
ATOM      7  C   UNL d   1     144.059 141.925 127.039  0.00  0.00     0.015 C 
ATOM      8  C   UNL d   1     141.769 137.938 124.618  0.00  0.00     0.000 C 
ATOM      9  C   UNL d   1     141.450 141.733 126.766  0.00  0.00     0.000 C 
ATOM     10  C   UNL d   1     140.287 137.624 124.405  0.00  0.00     0.000 C 
ATOM     11  C   UNL d   1     144.234 139.018 126.169  0.00  0.00     0.025 C 
ATOM     12  C   UNL d   1     140.844 140.766 123.926  0.00  0.00     0.000 C 
ATOM     13  C   UNL d   1     145.361 141.113 126.983  0.00  0.00    -0.047 C 
ATOM     14  C   UNL d   1     143.983 142.654 128.413  0.00  0.00     0.006 C 
ATOM     15  C   UNL d   1     145.413 139.822 126.618  0.00  0.00    -0.035 C 
ATOM     16  C   UNL d   1     144.090 142.975 125.901  0.00  0.00     0.004 C 
ATOM     17  C   UNL d   1     146.630 141.842 127.381  0.00  0.00     0.051 C 
ATOM     18  C   UNL d   1     145.252 143.423 128.785  0.00  0.00     0.030 C 
ATOM     19  C   UNL d   1     146.487 142.526 128.738  0.00  0.00     0.115 C 
ENDROOT
BRANCH   5  20
ATOM     20  C   UNL d   1     138.239 139.150 124.003  0.00  0.00     0.000 C 
ATOM     21  C   UNL d   1     136.892 138.967 124.712  0.00  0.00     0.000 C 
BRANCH  20  22
ATOM     22  C   UNL d   1     138.319 138.262 122.728  0.00  0.00     0.000 C 
BRANCH  22  23
ATOM     23  C   UNL d   1     137.771 138.841 121.414  0.00  0.00     0.000 C 
BRANCH  23  24
ATOM     24  C   UNL d   1     136.582 138.101 120.790  0.00  0.00     0.000 C 
BRANCH  24  25
ATOM     25  C   UNL d   1     135.984 136.970 121.646  0.00  0.00     0.000 C 
ATOM     26  C   UNL d   1     134.629 137.360 122.243  0.00  0.00     0.000 C 
ATOM     27  C   UNL d   1     135.834 135.698 120.808  0.00  0.00     0.000 C 
ENDBRANCH  24  25
ENDBRANCH  23  24
ENDBRANCH  22  23
ENDBRANCH  20  22
ENDBRANCH   5  20
BRANCH  19  28
ATOM     28  O   UNL d   1     147.652 143.313 128.981  0.00  0.00    -0.385 OA
ATOM     29  H   UNL d   1     148.408 142.703 129.048  0.00  0.00     0.210 HD
ENDBRANCH  19  28
TORSDOF 6
ENDMDL
MODEL 4
REMARK VINA RESULT:    -7.247     12.736     15.086
REMARK INTER + INTRA:         -11.309
REMARK INTER:                 -10.238
REMARK INTRA:                  -1.071
REMARK UNBOUND:                -1.732
REMARK  6 active torsions:
REMARK  status: ('A' for Active; 'I' for Inactive)
REMARK    1  A    between atoms: O_1  and  C_22 
REMARK    2  A    between atoms: C_6  and  C_13 
REMARK    3  A    between atoms: C_13  and  C_21 
REMARK    4  A    between atoms: C_21  and  C_24 
REMARK    5  A    between atoms: C_24  and  C_25 
REMARK    6  A    between atoms: C_25  and  C_26 
ROOT
ATOM      1  C   UNL d   1     128.466 129.465 159.116  0.00  0.00     0.000 C 
ATOM      2  C   UNL d   1     128.112 130.807 159.806  0.00  0.00     0.000 C 
ATOM      3  C   UNL d   1     127.052 130.636 160.896  0.00  0.00     0.005 C 
ATOM      4  C   UNL d   1     127.576 129.665 161.993  0.00  0.00     0.004 C 
ATOM      5  C   UNL d   1     129.410 129.954 157.971  0.00  0.00     0.000 C 
ATOM      6  C   UNL d   1     129.163 128.629 160.206  0.00  0.00     0.000 C 
ATOM      7  C   UNL d   1     126.460 129.373 163.076  0.00  0.00     0.015 C 
ATOM      8  C   UNL d   1     127.804 131.740 158.649  0.00  0.00     0.000 C 
ATOM      9  C   UNL d   1     128.246 128.384 161.416  0.00  0.00     0.000 C 
ATOM     10  C   UNL d   1     128.843 131.356 157.593  0.00  0.00     0.000 C 
ATOM     11  C   UNL d   1     126.653 131.980 161.523  0.00  0.00     0.025 C 
ATOM     12  C   UNL d   1     127.213 128.743 158.558  0.00  0.00     0.000 C 
ATOM     13  C   UNL d   1     125.718 130.664 163.452  0.00  0.00    -0.047 C 
ATOM     14  C   UNL d   1     127.151 128.805 164.350  0.00  0.00     0.006 C 
ATOM     15  C   UNL d   1     125.836 131.813 162.766  0.00  0.00    -0.035 C 
ATOM     16  C   UNL d   1     125.423 128.350 162.552  0.00  0.00     0.004 C 
ATOM     17  C   UNL d   1     124.826 130.599 164.676  0.00  0.00     0.051 C 
ATOM     18  C   UNL d   1     126.231 128.701 165.568  0.00  0.00     0.030 C 
ATOM     19  C   UNL d   1     125.569 130.039 165.888  0.00  0.00     0.115 C 
ENDROOT
BRANCH   5  20
ATOM     20  C   UNL d   1     129.633 129.061 156.702  0.00  0.00     0.000 C 
ATOM     21  C   UNL d   1     130.879 128.174 156.810  0.00  0.00     0.000 C 
BRANCH  20  22
ATOM     22  C   UNL d   1     129.706 129.968 155.439  0.00  0.00     0.000 C 
BRANCH  22  23
ATOM     23  C   UNL d   1     128.548 129.893 154.433  0.00  0.00     0.000 C 
BRANCH  23  24
ATOM     24  C   UNL d   1     128.332 128.538 153.746  0.00  0.00     0.000 C 
BRANCH  24  25
ATOM     25  C   UNL d   1     129.615 127.804 153.318  0.00  0.00     0.000 C 
ATOM     26  C   UNL d   1     129.628 126.349 153.798  0.00  0.00     0.000 C 
ATOM     27  C   UNL d   1     129.763 127.847 151.795  0.00  0.00     0.000 C 
ENDBRANCH  24  25
ENDBRANCH  23  24
ENDBRANCH  22  23
ENDBRANCH  20  22
ENDBRANCH   5  20
BRANCH  19  28
ATOM     28  O   UNL d   1     124.639 129.863 166.955  0.00  0.00    -0.385 OA
ATOM     29  H   UNL d   1     125.053 129.268 167.608  0.00  0.00     0.210 HD
ENDBRANCH  19  28
TORSDOF 6
ENDMDL
MODEL 5
REMARK VINA RESULT:    -7.212     13.760     15.043
REMARK INTER + INTRA:         -11.262
REMARK INTER:                  -9.770
REMARK INTRA:                  -1.491
REMARK UNBOUND:                -1.732
REMARK  6 active torsions:
REMARK  status: ('A' for Active; 'I' for Inactive)
REMARK    1  A    between atoms: O_1  and  C_22 
REMARK    2  A    between atoms: C_6  and  C_13 
REMARK    3  A    between atoms: C_13  and  C_21 
REMARK    4  A    between atoms: C_21  and  C_24 
REMARK    5  A    between atoms: C_24  and  C_25 
REMARK    6  A    between atoms: C_25  and  C_26 
ROOT
ATOM      1  C   UNL d   1     128.480 127.330 158.705  0.00  0.00     0.000 C 
ATOM      2  C   UNL d   1     127.678 126.891 157.453  0.00  0.00     0.000 C 
ATOM      3  C   UNL d   1     128.588 126.470 156.299  0.00  0.00     0.005 C 
ATOM      4  C   UNL d   1     129.475 125.269 156.736  0.00  0.00     0.004 C 
ATOM      5  C   UNL d   1     127.335 127.851 159.630  0.00  0.00     0.000 C 
ATOM      6  C   UNL d   1     129.171 126.046 159.204  0.00  0.00     0.000 C 
ATOM      7  C   UNL d   1     130.512 124.884 155.606  0.00  0.00     0.015 C 
ATOM      8  C   UNL d   1     126.712 128.038 157.221  0.00  0.00     0.000 C 
ATOM      9  C   UNL d   1     130.114 125.452 158.143  0.00  0.00     0.000 C 
ATOM     10  C   UNL d   1     126.292 128.445 158.636  0.00  0.00     0.000 C 
ATOM     11  C   UNL d   1     127.788 126.109 155.039  0.00  0.00     0.025 C 
ATOM     12  C   UNL d   1     129.509 128.442 158.382  0.00  0.00     0.000 C 
ATOM     13  C   UNL d   1     129.843 124.911 154.224  0.00  0.00    -0.047 C 
ATOM     14  C   UNL d   1     131.027 123.441 155.884  0.00  0.00     0.006 C 
ATOM     15  C   UNL d   1     128.628 125.436 153.999  0.00  0.00    -0.035 C 
ATOM     16  C   UNL d   1     131.711 125.863 155.586  0.00  0.00     0.004 C 
ATOM     17  C   UNL d   1     130.625 124.289 153.082  0.00  0.00     0.051 C 
ATOM     18  C   UNL d   1     131.852 122.840 154.745  0.00  0.00     0.030 C 
ATOM     19  C   UNL d   1     131.092 122.875 153.421  0.00  0.00     0.115 C 
ENDROOT
BRANCH   5  20
ATOM     20  C   UNL d   1     127.659 128.853 160.792  0.00  0.00     0.000 C 
ATOM     21  C   UNL d   1     127.785 128.163 162.155  0.00  0.00     0.000 C 
BRANCH  20  22
ATOM     22  C   UNL d   1     126.572 129.965 160.833  0.00  0.00     0.000 C 
BRANCH  22  23
ATOM     23  C   UNL d   1     126.974 131.379 160.388  0.00  0.00     0.000 C 
BRANCH  23  24
ATOM     24  C   UNL d   1     128.265 131.491 159.569  0.00  0.00     0.000 C 
BRANCH  24  25
ATOM     25  C   UNL d   1     128.181 132.392 158.323  0.00  0.00     0.000 C 
ATOM     26  C   UNL d   1     127.588 131.650 157.121  0.00  0.00     0.000 C 
ATOM     27  C   UNL d   1     127.343 133.636 158.629  0.00  0.00     0.000 C 
ENDBRANCH  24  25
ENDBRANCH  23  24
ENDBRANCH  22  23
ENDBRANCH  20  22
ENDBRANCH   5  20
BRANCH  19  28
ATOM     28  O   UNL d   1     131.943 122.410 152.375  0.00  0.00    -0.385 OA
ATOM     29  H   UNL d   1     131.525 122.651 151.529  0.00  0.00     0.210 HD
ENDBRANCH  19  28
TORSDOF 6
ENDMDL
MODEL 6
REMARK VINA RESULT:    -7.025      2.518      5.382
REMARK INTER + INTRA:         -11.016
REMARK INTER:                  -9.569
REMARK INTRA:                  -1.446
REMARK UNBOUND:                -1.732
REMARK  6 active torsions:
REMARK  status: ('A' for Active; 'I' for Inactive)
REMARK    1  A    between atoms: O_1  and  C_22 
REMARK    2  A    between atoms: C_6  and  C_13 
REMARK    3  A    between atoms: C_13  and  C_21 
REMARK    4  A    between atoms: C_21  and  C_24 
REMARK    5  A    between atoms: C_24  and  C_25 
REMARK    6  A    between atoms: C_25  and  C_26 
ROOT
ATOM      1  C   UNL d   1     129.204 122.568 171.467  0.00  0.00     0.000 C 
ATOM      2  C   UNL d   1     128.720 121.326 172.259  0.00  0.00     0.000 C 
ATOM      3  C   UNL d   1     128.633 120.076 171.381  0.00  0.00     0.005 C 
ATOM      4  C   UNL d   1     130.036 119.745 170.794  0.00  0.00     0.004 C 
ATOM      5  C   UNL d   1     129.036 123.693 172.538  0.00  0.00     0.000 C 
ATOM      6  C   UNL d   1     130.666 122.255 171.092  0.00  0.00     0.000 C 
ATOM      7  C   UNL d   1     129.960 118.527 169.788  0.00  0.00     0.015 C 
ATOM      8  C   UNL d   1     127.456 121.805 172.947  0.00  0.00     0.000 C 
ATOM      9  C   UNL d   1     130.778 120.989 170.225  0.00  0.00     0.000 C 
ATOM     10  C   UNL d   1     127.796 123.237 173.366  0.00  0.00     0.000 C 
ATOM     11  C   UNL d   1     128.082 118.869 172.154  0.00  0.00     0.025 C 
ATOM     12  C   UNL d   1     128.339 122.836 170.210  0.00  0.00     0.000 C 
ATOM     13  C   UNL d   1     129.054 117.420 170.343  0.00  0.00    -0.047 C 
ATOM     14  C   UNL d   1     131.395 117.954 169.603  0.00  0.00     0.006 C 
ATOM     15  C   UNL d   1     128.248 117.584 171.405  0.00  0.00    -0.035 C 
ATOM     16  C   UNL d   1     129.402 118.969 168.412  0.00  0.00     0.004 C 
ATOM     17  C   UNL d   1     129.111 116.080 169.634  0.00  0.00     0.051 C 
ATOM     18  C   UNL d   1     131.446 116.625 168.848  0.00  0.00     0.030 C 
ATOM     19  C   UNL d   1     130.546 115.575 169.495  0.00  0.00     0.115 C 
ENDROOT
BRANCH   5  20
ATOM     20  C   UNL d   1     128.911 125.190 172.090  0.00  0.00     0.000 C 
ATOM     21  C   UNL d   1     130.152 126.021 172.437  0.00  0.00     0.000 C 
BRANCH  20  22
ATOM     22  C   UNL d   1     127.633 125.813 172.722  0.00  0.00     0.000 C 
BRANCH  22  23
ATOM     23  C   UNL d   1     126.484 126.204 171.781  0.00  0.00     0.000 C 
BRANCH  23  24
ATOM     24  C   UNL d   1     126.773 126.103 170.278  0.00  0.00     0.000 C 
BRANCH  24  25
ATOM     25  C   UNL d   1     125.847 125.160 169.489  0.00  0.00     0.000 C 
ATOM     26  C   UNL d   1     125.028 124.257 170.416  0.00  0.00     0.000 C 
ATOM     27  C   UNL d   1     124.907 125.972 168.595  0.00  0.00     0.000 C 
ENDBRANCH  24  25
ENDBRANCH  23  24
ENDBRANCH  22  23
ENDBRANCH  20  22
ENDBRANCH   5  20
BRANCH  19  28
ATOM     28  O   UNL d   1     130.542 114.397 168.692  0.00  0.00    -0.385 OA
ATOM     29  H   UNL d   1     131.383 114.374 168.201  0.00  0.00     0.210 HD
ENDBRANCH  19  28
TORSDOF 6
ENDMDL
MODEL 7
REMARK VINA RESULT:    -6.967     46.609     50.571
REMARK INTER + INTRA:         -10.938
REMARK INTER:                  -9.685
REMARK INTRA:                  -1.253
REMARK UNBOUND:                -1.732
REMARK  6 active torsions:
REMARK  status: ('A' for Active; 'I' for Inactive)
REMARK    1  A    between atoms: O_1  and  C_22 
REMARK    2  A    between atoms: C_6  and  C_13 
REMARK    3  A    between atoms: C_13  and  C_21 
REMARK    4  A    between atoms: C_21  and  C_24 
REMARK    5  A    between atoms: C_24  and  C_25 
REMARK    6  A    between atoms: C_25  and  C_26 
ROOT
ATOM      1  C   UNL d   1     132.340 111.283 123.013  0.00  0.00     0.000 C 
ATOM      2  C   UNL d   1     132.722 112.688 123.544  0.00  0.00     0.000 C 
ATOM      3  C   UNL d   1     133.121 112.661 125.021  0.00  0.00     0.005 C 
ATOM      4  C   UNL d   1     134.353 111.731 125.217  0.00  0.00     0.004 C 
ATOM      5  C   UNL d   1     131.828 111.632 121.579  0.00  0.00     0.000 C 
ATOM      6  C   UNL d   1     133.653 110.476 123.045  0.00  0.00     0.000 C 
ATOM      7  C   UNL d   1     134.720 111.587 126.749  0.00  0.00     0.015 C 
ATOM      8  C   UNL d   1     131.550 113.561 123.136  0.00  0.00     0.000 C 
ATOM      9  C   UNL d   1     134.229 110.373 124.468  0.00  0.00     0.000 C 
ATOM     10  C   UNL d   1     131.182 113.040 121.745  0.00  0.00     0.000 C 
ATOM     11  C   UNL d   1     133.426 114.067 125.559  0.00  0.00     0.025 C 
ATOM     12  C   UNL d   1     131.237 110.612 123.869  0.00  0.00     0.000 C 
ATOM     13  C   UNL d   1     134.635 112.947 127.458  0.00  0.00    -0.047 C 
ATOM     14  C   UNL d   1     136.181 111.059 126.855  0.00  0.00     0.006 C 
ATOM     15  C   UNL d   1     134.080 114.037 126.904  0.00  0.00    -0.035 C 
ATOM     16  C   UNL d   1     133.763 110.603 127.466  0.00  0.00     0.004 C 
ATOM     17  C   UNL d   1     135.233 113.022 128.849  0.00  0.00     0.051 C 
ATOM     18  C   UNL d   1     136.759 111.098 128.271  0.00  0.00     0.030 C 
ATOM     19  C   UNL d   1     136.666 112.495 128.878  0.00  0.00     0.115 C 
ENDROOT
BRANCH   5  20
ATOM     20  C   UNL d   1     130.872 110.644 120.826  0.00  0.00     0.000 C 
ATOM     21  C   UNL d   1     131.588 109.381 120.332  0.00  0.00     0.000 C 
BRANCH  20  22
ATOM     22  C   UNL d   1     130.187 111.389 119.644  0.00  0.00     0.000 C 
BRANCH  22  23
ATOM     23  C   UNL d   1     131.003 111.604 118.361  0.00  0.00     0.000 C 
BRANCH  23  24
ATOM     24  C   UNL d   1     131.330 113.058 117.999  0.00  0.00     0.000 C 
BRANCH  24  25
ATOM     25  C   UNL d   1     132.799 113.333 117.631  0.00  0.00     0.000 C 
ATOM     26  C   UNL d   1     133.701 113.370 118.869  0.00  0.00     0.000 C 
ATOM     27  C   UNL d   1     133.305 112.269 116.654  0.00  0.00     0.000 C 
ENDBRANCH  24  25
ENDBRANCH  23  24
ENDBRANCH  22  23
ENDBRANCH  20  22
ENDBRANCH   5  20
BRANCH  19  28
ATOM     28  O   UNL d   1     137.112 112.452 130.232  0.00  0.00    -0.385 OA
ATOM     29  H   UNL d   1     137.708 113.212 130.368  0.00  0.00     0.210 HD
ENDBRANCH  19  28
TORSDOF 6
ENDMDL
MODEL 8
REMARK VINA RESULT:    -6.814      2.594      4.341
REMARK INTER + INTRA:         -10.737
REMARK INTER:                  -9.344
REMARK INTRA:                  -1.393
REMARK UNBOUND:                -1.732
REMARK  6 active torsions:
REMARK  status: ('A' for Active; 'I' for Inactive)
REMARK    1  A    between atoms: O_1  and  C_22 
REMARK    2  A    between atoms: C_6  and  C_13 
REMARK    3  A    between atoms: C_13  and  C_21 
REMARK    4  A    between atoms: C_21  and  C_24 
REMARK    5  A    between atoms: C_24  and  C_25 
REMARK    6  A    between atoms: C_25  and  C_26 
ROOT
ATOM      1  C   UNL d   1     127.665 124.370 172.187  0.00  0.00     0.000 C 
ATOM      2  C   UNL d   1     128.351 123.508 171.097  0.00  0.00     0.000 C 
ATOM      3  C   UNL d   1     128.761 122.130 171.619  0.00  0.00     0.005 C 
ATOM      4  C   UNL d   1     127.503 121.357 172.111  0.00  0.00     0.004 C 
ATOM      5  C   UNL d   1     127.518 125.736 171.444  0.00  0.00     0.000 C 
ATOM      6  C   UNL d   1     126.332 123.654 172.480  0.00  0.00     0.000 C 
ATOM      7  C   UNL d   1     127.904 119.974 172.767  0.00  0.00     0.015 C 
ATOM      8  C   UNL d   1     129.435 124.415 170.546  0.00  0.00     0.000 C 
ATOM      9  C   UNL d   1     126.551 122.219 172.989  0.00  0.00     0.000 C 
ATOM     10  C   UNL d   1     128.769 125.793 170.516  0.00  0.00     0.000 C 
ATOM     11  C   UNL d   1     129.506 121.311 170.556  0.00  0.00     0.025 C 
ATOM     12  C   UNL d   1     128.534 124.501 173.464  0.00  0.00     0.000 C 
ATOM     13  C   UNL d   1     128.989 119.274 171.935  0.00  0.00    -0.047 C 
ATOM     14  C   UNL d   1     126.640 119.066 172.807  0.00  0.00     0.006 C 
ATOM     15  C   UNL d   1     129.669 119.876 170.946  0.00  0.00    -0.035 C 
ATOM     16  C   UNL d   1     128.444 120.170 174.205  0.00  0.00     0.004 C 
ATOM     17  C   UNL d   1     129.266 117.821 172.273  0.00  0.00     0.051 C 
ATOM     18  C   UNL d   1     126.925 117.614 173.192  0.00  0.00     0.030 C 
ATOM     19  C   UNL d   1     127.985 116.990 172.288  0.00  0.00     0.115 C 
ENDROOT
BRANCH   5  20
ATOM     20  C   UNL d   1     127.348 127.061 172.264  0.00  0.00     0.000 C 
ATOM     21  C   UNL d   1     126.300 126.942 173.377  0.00  0.00     0.000 C 
BRANCH  20  22
ATOM     22  C   UNL d   1     126.996 128.227 171.295  0.00  0.00     0.000 C 
BRANCH  22  23
ATOM     23  C   UNL d   1     125.582 128.260 170.696  0.00  0.00     0.000 C 
BRANCH  23  24
ATOM     24  C   UNL d   1     125.393 127.530 169.360  0.00  0.00     0.000 C 
BRANCH  24  25
ATOM     25  C   UNL d   1     124.426 126.333 169.393  0.00  0.00     0.000 C 
ATOM     26  C   UNL d   1     125.097 125.044 168.908  0.00  0.00     0.000 C 
ATOM     27  C   UNL d   1     123.884 126.132 170.810  0.00  0.00     0.000 C 
ENDBRANCH  24  25
ENDBRANCH  23  24
ENDBRANCH  22  23
ENDBRANCH  20  22
ENDBRANCH   5  20
BRANCH  19  28
ATOM     28  O   UNL d   1     128.295 115.679 172.758  0.00  0.00    -0.385 OA
ATOM     29  H   UNL d   1     127.948 115.045 172.104  0.00  0.00     0.210 HD
ENDBRANCH  19  28
TORSDOF 6
ENDMDL
MODEL 9
REMARK VINA RESULT:    -6.719     53.514     55.129
REMARK INTER + INTRA:         -10.611
REMARK INTER:                  -9.707
REMARK INTRA:                  -0.904
REMARK UNBOUND:                -1.732
REMARK  6 active torsions:
REMARK  status: ('A' for Active; 'I' for Inactive)
REMARK    1  A    between atoms: O_1  and  C_22 
REMARK    2  A    between atoms: C_6  and  C_13 
REMARK    3  A    between atoms: C_13  and  C_21 
REMARK    4  A    between atoms: C_21  and  C_24 
REMARK    5  A    between atoms: C_24  and  C_25 
REMARK    6  A    between atoms: C_25  and  C_26 
ROOT
ATOM      1  C   UNL d   1     147.213 154.201 130.819  0.00  0.00     0.000 C 
ATOM      2  C   UNL d   1     148.729 154.093 130.513  0.00  0.00     0.000 C 
ATOM      3  C   UNL d   1     149.028 153.076 129.411  0.00  0.00     0.005 C 
ATOM      4  C   UNL d   1     148.310 153.497 128.096  0.00  0.00     0.004 C 
ATOM      5  C   UNL d   1     147.221 155.151 132.058  0.00  0.00     0.000 C 
ATOM      6  C   UNL d   1     146.594 154.814 129.547  0.00  0.00     0.000 C 
ATOM      7  C   UNL d   1     148.502 152.405 126.968  0.00  0.00     0.015 C 
ATOM      8  C   UNL d   1     149.359 153.876 131.877  0.00  0.00     0.000 C 
ATOM      9  C   UNL d   1     146.831 153.930 128.310  0.00  0.00     0.000 C 
ATOM     10  C   UNL d   1     148.546 154.790 132.797  0.00  0.00     0.000 C 
ATOM     11  C   UNL d   1     150.536 152.921 129.167  0.00  0.00     0.025 C 
ATOM     12  C   UNL d   1     146.583 152.825 131.153  0.00  0.00     0.000 C 
ATOM     13  C   UNL d   1     149.949 151.891 126.949  0.00  0.00    -0.047 C 
ATOM     14  C   UNL d   1     148.187 153.062 125.592  0.00  0.00     0.006 C 
ATOM     15  C   UNL d   1     150.839 152.151 127.920  0.00  0.00    -0.035 C 
ATOM     16  C   UNL d   1     147.559 151.196 127.189  0.00  0.00     0.004 C 
ATOM     17  C   UNL d   1     150.356 151.062 125.746  0.00  0.00     0.051 C 
ATOM     18  C   UNL d   1     148.561 152.199 124.386  0.00  0.00     0.030 C 
ATOM     19  C   UNL d   1     150.025 151.769 124.434  0.00  0.00     0.115 C 
ENDROOT
BRANCH   5  20
ATOM     20  C   UNL d   1     146.000 155.169 133.041  0.00  0.00     0.000 C 
ATOM     21  C   UNL d   1     144.652 155.243 132.314  0.00  0.00     0.000 C 
BRANCH  20  22
ATOM     22  C   UNL d   1     146.156 156.354 134.038  0.00  0.00     0.000 C 
BRANCH  22  23
ATOM     23  C   UNL d   1     146.321 157.765 133.455  0.00  0.00     0.000 C 
BRANCH  23  24
ATOM     24  C   UNL d   1     147.554 158.551 133.917  0.00  0.00     0.000 C 
BRANCH  24  25
ATOM     25  C   UNL d   1     148.802 158.405 133.028  0.00  0.00     0.000 C 
ATOM     26  C   UNL d   1     149.138 159.709 132.298  0.00  0.00     0.000 C 
ATOM     27  C   UNL d   1     150.000 157.961 133.871  0.00  0.00     0.000 C 
ENDBRANCH  24  25
ENDBRANCH  23  24
ENDBRANCH  22  23
ENDBRANCH  20  22
ENDBRANCH   5  20
BRANCH  19  28
ATOM     28  O   UNL d   1     150.291 150.878 123.353  0.00  0.00    -0.385 OA
ATOM     29  H   UNL d   1     150.159 149.970 123.682  0.00  0.00     0.210 HD
ENDBRANCH  19  28
TORSDOF 6
ENDMDL
MODEL 10
REMARK VINA RESULT:    -6.497      4.260      7.833
REMARK INTER + INTRA:         -10.317
REMARK INTER:                  -9.569
REMARK INTRA:                  -0.748
REMARK UNBOUND:                -1.732
REMARK  6 active torsions:
REMARK  status: ('A' for Active; 'I' for Inactive)
REMARK    1  A    between atoms: O_1  and  C_22 
REMARK    2  A    between atoms: C_6  and  C_13 
REMARK    3  A    between atoms: C_13  and  C_21 
REMARK    4  A    between atoms: C_21  and  C_24 
REMARK    5  A    between atoms: C_24  and  C_25 
REMARK    6  A    between atoms: C_25  and  C_26 
ROOT
ATOM      1  C   UNL d   1     129.743 119.484 170.102  0.00  0.00     0.000 C 
ATOM      2  C   UNL d   1     129.310 118.508 171.226  0.00  0.00     0.000 C 
ATOM      3  C   UNL d   1     129.041 117.098 170.698  0.00  0.00     0.005 C 
ATOM      4  C   UNL d   1     130.331 116.524 170.045  0.00  0.00     0.004 C 
ATOM      5  C   UNL d   1     129.781 120.840 170.877  0.00  0.00     0.000 C 
ATOM      6  C   UNL d   1     131.121 118.972 169.640  0.00  0.00     0.000 C 
ATOM      7  C   UNL d   1     130.055 115.113 169.383  0.00  0.00     0.015 C 
ATOM      8  C   UNL d   1     128.179 119.239 171.925  0.00  0.00     0.000 C 
ATOM      9  C   UNL d   1     131.049 117.533 169.103  0.00  0.00     0.000 C 
ATOM     10  C   UNL d   1     128.646 120.696 171.936  0.00  0.00     0.000 C 
ATOM     11  C   UNL d   1     128.541 116.157 171.804  0.00  0.00     0.025 C 
ATOM     12  C   UNL d   1     128.727 119.518 168.932  0.00  0.00     0.000 C 
ATOM     13  C   UNL d   1     129.179 114.246 170.299  0.00  0.00    -0.047 C 
ATOM     14  C   UNL d   1     131.421 114.396 169.172  0.00  0.00     0.006 C 
ATOM     15  C   UNL d   1     128.537 114.723 171.378  0.00  0.00    -0.035 C 
ATOM     16  C   UNL d   1     129.336 115.263 168.020  0.00  0.00     0.004 C 
ATOM     17  C   UNL d   1     129.071 112.777 169.938  0.00  0.00     0.051 C 
ATOM     18  C   UNL d   1     131.300 112.927 168.765  0.00  0.00     0.030 C 
ATOM     19  C   UNL d   1     130.445 112.138 169.753  0.00  0.00     0.115 C 
ENDROOT
BRANCH   5  20
ATOM     20  C   UNL d   1     129.671 122.194 170.094  0.00  0.00     0.000 C 
ATOM     21  C   UNL d   1     131.037 122.836 169.821  0.00  0.00     0.000 C 
BRANCH  20  22
ATOM     22  C   UNL d   1     128.748 123.170 170.879  0.00  0.00     0.000 C 
BRANCH  22  23
ATOM     23  C   UNL d   1     127.470 123.664 170.184  0.00  0.00     0.000 C 
BRANCH  23  24
ATOM     24  C   UNL d   1     127.204 125.174 170.245  0.00  0.00     0.000 C 
BRANCH  24  25
ATOM     25  C   UNL d   1     125.842 125.627 169.691  0.00  0.00     0.000 C 
ATOM     26  C   UNL d   1     125.967 126.883 168.824  0.00  0.00     0.000 C 
ATOM     27  C   UNL d   1     125.202 124.498 168.878  0.00  0.00     0.000 C 
ENDBRANCH  24  25
ENDBRANCH  23  24
ENDBRANCH  22  23
ENDBRANCH  20  22
ENDBRANCH   5  20
BRANCH  19  28
ATOM     28  O   UNL d   1     130.271 110.807 169.269  0.00  0.00    -0.385 OA
ATOM     29  H   UNL d   1     129.314 110.622 169.259  0.00  0.00     0.210 HD
ENDBRANCH  19  28
TORSDOF 6
ENDMDL
MODEL 11
REMARK VINA RESULT:    -6.429     60.373     66.014
REMARK INTER + INTRA:         -10.228
REMARK INTER:                  -8.987
REMARK INTRA:                  -1.241
REMARK UNBOUND:                -1.732
REMARK  6 active torsions:
REMARK  status: ('A' for Active; 'I' for Inactive)
REMARK    1  A    between atoms: O_1  and  C_22 
REMARK    2  A    between atoms: C_6  and  C_13 
REMARK    3  A    between atoms: C_13  and  C_21 
REMARK    4  A    between atoms: C_21  and  C_24 
REMARK    5  A    between atoms: C_24  and  C_25 
REMARK    6  A    between atoms: C_25  and  C_26 
ROOT
ATOM      1  C   UNL d   1     157.482  98.163 118.106  0.00  0.00     0.000 C 
ATOM      2  C   UNL d   1     156.118  98.716 117.620  0.00  0.00     0.000 C 
ATOM      3  C   UNL d   1     155.232  99.175 118.779  0.00  0.00     0.005 C 
ATOM      4  C   UNL d   1     155.945 100.308 119.571  0.00  0.00     0.004 C 
ATOM      5  C   UNL d   1     158.085  97.629 116.768  0.00  0.00     0.000 C 
ATOM      6  C   UNL d   1     158.217  99.382 118.697  0.00  0.00     0.000 C 
ATOM      7  C   UNL d   1     155.107 100.725 120.847  0.00  0.00     0.015 C 
ATOM      8  C   UNL d   1     155.591  97.627 116.704  0.00  0.00     0.000 C 
ATOM      9  C   UNL d   1     157.442 100.007 119.870  0.00  0.00     0.000 C 
ATOM     10  C   UNL d   1     156.841  97.145 115.964  0.00  0.00     0.000 C 
ATOM     11  C   UNL d   1     153.855  99.651 118.294  0.00  0.00     0.025 C 
ATOM     12  C   UNL d   1     157.317  97.034 119.154  0.00  0.00     0.000 C 
ATOM     13  C   UNL d   1     153.613 100.817 120.509  0.00  0.00    -0.047 C 
ATOM     14  C   UNL d   1     155.600 102.124 121.321  0.00  0.00     0.006 C 
ATOM     15  C   UNL d   1     153.082 100.357 119.364  0.00  0.00    -0.035 C 
ATOM     16  C   UNL d   1     155.286  99.701 121.995  0.00  0.00     0.004 C 
ATOM     17  C   UNL d   1     152.725 101.481 121.544  0.00  0.00     0.051 C 
ATOM     18  C   UNL d   1     154.722 102.766 122.397  0.00  0.00     0.030 C 
ATOM     19  C   UNL d   1     153.263 102.849 121.957  0.00  0.00     0.115 C 
ENDROOT
BRANCH   5  20
ATOM     20  C   UNL d   1     159.213  96.540 116.796  0.00  0.00     0.000 C 
ATOM     21  C   UNL d   1     160.602  97.113 116.490  0.00  0.00     0.000 C 
BRANCH  20  22
ATOM     22  C   UNL d   1     158.854  95.399 115.800  0.00  0.00     0.000 C 
BRANCH  22  23
ATOM     23  C   UNL d   1     158.601  93.997 116.375  0.00  0.00     0.000 C 
BRANCH  23  24
ATOM     24  C   UNL d   1     157.926  93.939 117.751  0.00  0.00     0.000 C 
BRANCH  24  25
ATOM     25  C   UNL d   1     158.665  93.107 118.814  0.00  0.00     0.000 C 
ATOM     26  C   UNL d   1     158.852  93.885 120.120  0.00  0.00     0.000 C 
ATOM     27  C   UNL d   1     157.903  91.809 119.090  0.00  0.00     0.000 C 
ENDBRANCH  24  25
ENDBRANCH  23  24
ENDBRANCH  22  23
ENDBRANCH  20  22
ENDBRANCH   5  20
BRANCH  19  28
ATOM     28  O   UNL d   1     152.472 103.348 123.034  0.00  0.00    -0.385 OA
ATOM     29  H   UNL d   1     152.832 104.219 123.282  0.00  0.00     0.210 HD
ENDBRANCH  19  28
TORSDOF 6
ENDMDL
MODEL 12
REMARK VINA RESULT:    -6.383     12.010     15.529
REMARK INTER + INTRA:         -10.167
REMARK INTER:                  -8.518
REMARK INTRA:                  -1.649
REMARK UNBOUND:                -1.732
REMARK  6 active torsions:
REMARK  status: ('A' for Active; 'I' for Inactive)
REMARK    1  A    between atoms: O_1  and  C_22 
REMARK    2  A    between atoms: C_6  and  C_13 
REMARK    3  A    between atoms: C_13  and  C_21 
REMARK    4  A    between atoms: C_21  and  C_24 
REMARK    5  A    between atoms: C_24  and  C_25 
REMARK    6  A    between atoms: C_25  and  C_26 
ROOT
ATOM      1  C   UNL d   1     127.141 140.265 175.425  0.00  0.00     0.000 C 
ATOM      2  C   UNL d   1     127.635 138.878 174.940  0.00  0.00     0.000 C 
ATOM      3  C   UNL d   1     127.606 137.830 176.053  0.00  0.00     0.005 C 
ATOM      4  C   UNL d   1     126.151 137.656 176.576  0.00  0.00     0.004 C 
ATOM      5  C   UNL d   1     127.434 141.146 174.168  0.00  0.00     0.000 C 
ATOM      6  C   UNL d   1     125.643 140.068 175.732  0.00  0.00     0.000 C 
ATOM      7  C   UNL d   1     126.102 136.666 177.809  0.00  0.00     0.015 C 
ATOM      8  C   UNL d   1     128.966 139.180 174.276  0.00  0.00     0.000 C 
ATOM      9  C   UNL d   1     125.416 139.006 176.822  0.00  0.00     0.000 C 
ATOM     10  C   UNL d   1     128.714 140.505 173.553  0.00  0.00     0.000 C 
ATOM     11  C   UNL d   1     128.167 136.480 175.585  0.00  0.00     0.025 C 
ATOM     12  C   UNL d   1     127.917 140.762 176.670  0.00  0.00     0.000 C 
ATOM     13  C   UNL d   1     127.005 135.448 177.562  0.00  0.00    -0.047 C 
ATOM     14  C   UNL d   1     124.636 136.174 177.984  0.00  0.00     0.006 C 
ATOM     15  C   UNL d   1     127.895 135.376 176.559  0.00  0.00    -0.035 C 
ATOM     16  C   UNL d   1     126.571 137.364 179.109  0.00  0.00     0.004 C 
ATOM     17  C   UNL d   1     126.842 134.281 178.517  0.00  0.00     0.051 C 
ATOM     18  C   UNL d   1     124.476 135.026 178.983  0.00  0.00     0.030 C 
ATOM     19  C   UNL d   1     125.382 133.848 178.636  0.00  0.00     0.115 C 
ENDROOT
BRANCH   5  20
ATOM     20  C   UNL d   1     127.582 142.700 174.317  0.00  0.00     0.000 C 
ATOM     21  C   UNL d   1     126.233 143.415 174.462  0.00  0.00     0.000 C 
BRANCH  20  22
ATOM     22  C   UNL d   1     128.379 143.261 173.104  0.00  0.00     0.000 C 
BRANCH  22  23
ATOM     23  C   UNL d   1     129.678 144.028 173.392  0.00  0.00     0.000 C 
BRANCH  23  24
ATOM     24  C   UNL d   1     130.168 144.013 174.845  0.00  0.00     0.000 C 
BRANCH  24  25
ATOM     25  C   UNL d   1     131.420 143.158 175.112  0.00  0.00     0.000 C 
ATOM     26  C   UNL d   1     131.176 142.116 176.208  0.00  0.00     0.000 C 
ATOM     27  C   UNL d   1     131.865 142.461 173.825  0.00  0.00     0.000 C 
ENDBRANCH  24  25
ENDBRANCH  23  24
ENDBRANCH  22  23
ENDBRANCH  20  22
ENDBRANCH   5  20
BRANCH  19  28
ATOM     28  O   UNL d   1     125.279 132.856 179.655  0.00  0.00    -0.385 OA
ATOM     29  H   UNL d   1     125.528 132.001 179.258  0.00  0.00     0.210 HD
ENDBRANCH  19  28
TORSDOF 6
ENDMDL
MODEL 13
REMARK VINA RESULT:    -6.377     53.906     55.639
REMARK INTER + INTRA:         -10.159
REMARK INTER:                  -8.739
REMARK INTRA:                  -1.421
REMARK UNBOUND:                -1.732
REMARK  6 active torsions:
REMARK  status: ('A' for Active; 'I' for Inactive)
REMARK    1  A    between atoms: O_1  and  C_22 
REMARK    2  A    between atoms: C_6  and  C_13 
REMARK    3  A    between atoms: C_13  and  C_21 
REMARK    4  A    between atoms: C_21  and  C_24 
REMARK    5  A    between atoms: C_24  and  C_25 
REMARK    6  A    between atoms: C_25  and  C_26 
ROOT
ATOM      1  C   UNL d   1     148.153 153.227 129.185  0.00  0.00     0.000 C 
ATOM      2  C   UNL d   1     149.453 152.609 128.610  0.00  0.00     0.000 C 
ATOM      3  C   UNL d   1     149.245 152.013 127.217  0.00  0.00     0.005 C 
ATOM      4  C   UNL d   1     148.775 153.124 126.234  0.00  0.00     0.004 C 
ATOM      5  C   UNL d   1     148.607 153.590 130.635  0.00  0.00     0.000 C 
ATOM      6  C   UNL d   1     147.858 154.442 128.285  0.00  0.00     0.000 C 
ATOM      7  C   UNL d   1     148.437 152.520 124.811  0.00  0.00     0.015 C 
ATOM      8  C   UNL d   1     149.937 151.689 129.716  0.00  0.00     0.000 C 
ATOM      9  C   UNL d   1     147.653 154.032 126.816  0.00  0.00     0.000 C 
ATOM     10  C   UNL d   1     149.637 152.476 130.994  0.00  0.00     0.000 C 
ATOM     11  C   UNL d   1     150.517 151.338 126.686  0.00  0.00     0.025 C 
ATOM     12  C   UNL d   1     146.975 152.220 129.187  0.00  0.00     0.000 C 
ATOM     13  C   UNL d   1     149.496 151.490 124.393  0.00  0.00    -0.047 C 
ATOM     14  C   UNL d   1     148.432 153.681 123.774  0.00  0.00     0.006 C 
ATOM     15  C   UNL d   1     150.423 150.998 125.231  0.00  0.00    -0.035 C 
ATOM     16  C   UNL d   1     147.054 151.823 124.810  0.00  0.00     0.004 C 
ATOM     17  C   UNL d   1     149.469 151.042 122.944  0.00  0.00     0.051 C 
ATOM     18  C   UNL d   1     148.359 153.220 122.318  0.00  0.00     0.030 C 
ATOM     19  C   UNL d   1     149.472 152.230 121.985  0.00  0.00     0.115 C 
ENDROOT
BRANCH   5  20
ATOM     20  C   UNL d   1     147.539 153.774 131.769  0.00  0.00     0.000 C 
ATOM     21  C   UNL d   1     147.620 155.148 132.445  0.00  0.00     0.000 C 
BRANCH  20  22
ATOM     22  C   UNL d   1     147.695 152.633 132.815  0.00  0.00     0.000 C 
BRANCH  22  23
ATOM     23  C   UNL d   1     146.504 151.686 133.027  0.00  0.00     0.000 C 
BRANCH  23  24
ATOM     24  C   UNL d   1     145.112 152.331 133.011  0.00  0.00     0.000 C 
BRANCH  24  25
ATOM     25  C   UNL d   1     144.264 152.041 131.759  0.00  0.00     0.000 C 
ATOM     26  C   UNL d   1     143.030 151.196 132.089  0.00  0.00     0.000 C 
ATOM     27  C   UNL d   1     143.832 153.353 131.100  0.00  0.00     0.000 C 
ENDBRANCH  24  25
ENDBRANCH  23  24
ENDBRANCH  22  23
ENDBRANCH  20  22
ENDBRANCH   5  20
BRANCH  19  28
ATOM     28  O   UNL d   1     149.293 151.747 120.655  0.00  0.00    -0.385 OA
ATOM     29  H   UNL d   1     148.334 151.657 120.503  0.00  0.00     0.210 HD
ENDBRANCH  19  28
TORSDOF 6
ENDMDL
MODEL 14
REMARK VINA RESULT:    -6.351      4.717     10.880
REMARK INTER + INTRA:         -10.124
REMARK INTER:                  -8.900
REMARK INTRA:                  -1.224
REMARK UNBOUND:                -1.732
REMARK  6 active torsions:
REMARK  status: ('A' for Active; 'I' for Inactive)
REMARK    1  A    between atoms: O_1  and  C_22 
REMARK    2  A    between atoms: C_6  and  C_13 
REMARK    3  A    between atoms: C_13  and  C_21 
REMARK    4  A    between atoms: C_21  and  C_24 
REMARK    5  A    between atoms: C_24  and  C_25 
REMARK    6  A    between atoms: C_25  and  C_26 
ROOT
ATOM      1  C   UNL d   1     129.474 117.299 170.223  0.00  0.00     0.000 C 
ATOM      2  C   UNL d   1     128.683 117.806 171.456  0.00  0.00     0.000 C 
ATOM      3  C   UNL d   1     129.117 119.207 171.889  0.00  0.00     0.005 C 
ATOM      4  C   UNL d   1     128.879 120.215 170.728  0.00  0.00     0.004 C 
ATOM      5  C   UNL d   1     128.959 115.829 170.117  0.00  0.00     0.000 C 
ATOM      6  C   UNL d   1     129.035 118.216 169.065  0.00  0.00     0.000 C 
ATOM      7  C   UNL d   1     129.426 121.652 171.100  0.00  0.00     0.015 C 
ATOM      8  C   UNL d   1     128.813 116.675 172.460  0.00  0.00     0.000 C 
ATOM      9  C   UNL d   1     129.365 119.693 169.345  0.00  0.00     0.000 C 
ATOM     10  C   UNL d   1     128.700 115.415 171.598  0.00  0.00     0.000 C 
ATOM     11  C   UNL d   1     128.382 119.670 173.155  0.00  0.00     0.025 C 
ATOM     12  C   UNL d   1     131.007 117.357 170.446  0.00  0.00     0.000 C 
ATOM     13  C   UNL d   1     129.065 122.013 172.548  0.00  0.00    -0.047 C 
ATOM     14  C   UNL d   1     128.766 122.690 170.146  0.00  0.00     0.006 C 
ATOM     15  C   UNL d   1     128.582 121.127 173.434  0.00  0.00    -0.035 C 
ATOM     16  C   UNL d   1     130.966 121.723 170.950  0.00  0.00     0.004 C 
ATOM     17  C   UNL d   1     129.266 123.461 172.954  0.00  0.00     0.051 C 
ATOM     18  C   UNL d   1     129.011 124.147 170.539  0.00  0.00     0.030 C 
ATOM     19  C   UNL d   1     128.587 124.421 171.979  0.00  0.00     0.115 C 
ENDROOT
BRANCH   5  20
ATOM     20  C   UNL d   1     129.810 114.752 169.358  0.00  0.00     0.000 C 
ATOM     21  C   UNL d   1     129.043 114.091 168.207  0.00  0.00     0.000 C 
BRANCH  20  22
ATOM     22  C   UNL d   1     130.315 113.685 170.372  0.00  0.00     0.000 C 
BRANCH  22  23
ATOM     23  C   UNL d   1     131.805 113.312 170.339  0.00  0.00     0.000 C 
BRANCH  23  24
ATOM     24  C   UNL d   1     132.613 113.849 169.152  0.00  0.00     0.000 C 
BRANCH  24  25
ATOM     25  C   UNL d   1     133.233 112.778 168.236  0.00  0.00     0.000 C 
ATOM     26  C   UNL d   1     134.026 111.737 169.032  0.00  0.00     0.000 C 
ATOM     27  C   UNL d   1     132.139 112.084 167.422  0.00  0.00     0.000 C 
ENDBRANCH  24  25
ENDBRANCH  23  24
ENDBRANCH  22  23
ENDBRANCH  20  22
ENDBRANCH   5  20
BRANCH  19  28
ATOM     28  O   UNL d   1     128.940 125.757 172.331  0.00  0.00    -0.385 OA
ATOM     29  H   UNL d   1     128.112 126.247 172.488  0.00  0.00     0.210 HD
ENDBRANCH  19  28
TORSDOF 6
ENDMDL
MODEL 15
REMARK VINA RESULT:    -6.221     45.509     48.891
REMARK INTER + INTRA:          -9.954
REMARK INTER:                  -9.012
REMARK INTRA:                  -0.942
REMARK UNBOUND:                -1.732
REMARK  6 active torsions:
REMARK  status: ('A' for Active; 'I' for Inactive)
REMARK    1  A    between atoms: O_1  and  C_22 
REMARK    2  A    between atoms: C_6  and  C_13 
REMARK    3  A    between atoms: C_13  and  C_21 
REMARK    4  A    between atoms: C_21  and  C_24 
REMARK    5  A    between atoms: C_24  and  C_25 
REMARK    6  A    between atoms: C_25  and  C_26 
ROOT
ATOM      1  C   UNL d   1     155.278 109.371 134.820  0.00  0.00     0.000 C 
ATOM      2  C   UNL d   1     154.442 110.541 135.397  0.00  0.00     0.000 C 
ATOM      3  C   UNL d   1     155.290 111.509 136.222  0.00  0.00     0.005 C 
ATOM      4  C   UNL d   1     156.408 112.123 135.330  0.00  0.00     0.004 C 
ATOM      5  C   UNL d   1     154.159 108.480 134.191  0.00  0.00     0.000 C 
ATOM      6  C   UNL d   1     156.225 110.027 133.795  0.00  0.00     0.000 C 
ATOM      7  C   UNL d   1     157.377 113.040 136.180  0.00  0.00     0.015 C 
ATOM      8  C   UNL d   1     153.276 109.850 136.080  0.00  0.00     0.000 C 
ATOM      9  C   UNL d   1     157.144 111.072 134.450  0.00  0.00     0.000 C 
ATOM     10  C   UNL d   1     152.936 108.697 135.133  0.00  0.00     0.000 C 
ATOM     11  C   UNL d   1     154.442 112.623 136.851  0.00  0.00     0.025 C 
ATOM     12  C   UNL d   1     156.065 108.614 135.919  0.00  0.00     0.000 C 
ATOM     13  C   UNL d   1     156.579 113.912 137.160  0.00  0.00    -0.047 C 
ATOM     14  C   UNL d   1     158.156 113.968 135.203  0.00  0.00     0.006 C 
ATOM     15  C   UNL d   1     155.275 113.726 137.424  0.00  0.00    -0.035 C 
ATOM     16  C   UNL d   1     158.384 112.190 136.994  0.00  0.00     0.004 C 
ATOM     17  C   UNL d   1     157.337 115.041 137.832  0.00  0.00     0.051 C 
ATOM     18  C   UNL d   1     158.952 115.077 135.894  0.00  0.00     0.030 C 
ATOM     19  C   UNL d   1     158.069 115.914 136.816  0.00  0.00     0.115 C 
ENDROOT
BRANCH   5  20
ATOM     20  C   UNL d   1     154.423 106.957 133.930  0.00  0.00     0.000 C 
ATOM     21  C   UNL d   1     155.223 106.703 132.647  0.00  0.00     0.000 C 
BRANCH  20  22
ATOM     22  C   UNL d   1     153.065 106.197 133.896  0.00  0.00     0.000 C 
BRANCH  22  23
ATOM     23  C   UNL d   1     152.813 105.232 132.727  0.00  0.00     0.000 C 
BRANCH  23  24
ATOM     24  C   UNL d   1     151.763 105.671 131.699  0.00  0.00     0.000 C 
BRANCH  24  25
ATOM     25  C   UNL d   1     152.127 105.404 130.228  0.00  0.00     0.000 C 
ATOM     26  C   UNL d   1     153.192 106.380 129.717  0.00  0.00     0.000 C 
ATOM     27  C   UNL d   1     152.622 103.965 130.061  0.00  0.00     0.000 C 
ENDBRANCH  24  25
ENDBRANCH  23  24
ENDBRANCH  22  23
ENDBRANCH  20  22
ENDBRANCH   5  20
BRANCH  19  28
ATOM     28  O   UNL d   1     158.878 116.855 137.518  0.00  0.00    -0.385 OA
ATOM     29  H   UNL d   1     159.205 116.416 138.324  0.00  0.00     0.210 HD
ENDBRANCH  19  28
TORSDOF 6
ENDMDL
MODEL 16
REMARK VINA RESULT:    -6.201     16.790     19.101
REMARK INTER + INTRA:          -9.927
REMARK INTER:                  -8.872
REMARK INTRA:                  -1.055
REMARK UNBOUND:                -1.732
REMARK  6 active torsions:
REMARK  status: ('A' for Active; 'I' for Inactive)
REMARK    1  A    between atoms: O_1  and  C_22 
REMARK    2  A    between atoms: C_6  and  C_13 
REMARK    3  A    between atoms: C_13  and  C_21 
REMARK    4  A    between atoms: C_21  and  C_24 
REMARK    5  A    between atoms: C_24  and  C_25 
REMARK    6  A    between atoms: C_25  and  C_26 
ROOT
ATOM      1  C   UNL d   1     127.435 143.689 171.268  0.00  0.00     0.000 C 
ATOM      2  C   UNL d   1     127.982 142.490 172.083  0.00  0.00     0.000 C 
ATOM      3  C   UNL d   1     127.298 142.353 173.444  0.00  0.00     0.005 C 
ATOM      4  C   UNL d   1     125.771 142.132 173.246  0.00  0.00     0.004 C 
ATOM      5  C   UNL d   1     128.403 143.688 170.042  0.00  0.00     0.000 C 
ATOM      6  C   UNL d   1     125.979 143.311 170.933  0.00  0.00     0.000 C 
ATOM      7  C   UNL d   1     125.014 142.103 174.636  0.00  0.00     0.015 C 
ATOM      8  C   UNL d   1     129.486 142.689 172.055  0.00  0.00     0.000 C 
ATOM      9  C   UNL d   1     125.136 143.095 172.202  0.00  0.00     0.000 C 
ATOM     10  C   UNL d   1     129.756 143.190 170.634  0.00  0.00     0.000 C 
ATOM     11  C   UNL d   1     127.897 141.209 174.275  0.00  0.00     0.025 C 
ATOM     12  C   UNL d   1     127.510 145.019 172.059  0.00  0.00     0.000 C 
ATOM     13  C   UNL d   1     125.805 141.286 175.667  0.00  0.00    -0.047 C 
ATOM     14  C   UNL d   1     123.625 141.433 174.424  0.00  0.00     0.006 C 
ATOM     15  C   UNL d   1     127.071 140.880 175.478  0.00  0.00    -0.035 C 
ATOM     16  C   UNL d   1     124.815 143.533 175.196  0.00  0.00     0.004 C 
ATOM     17  C   UNL d   1     125.076 140.928 176.948  0.00  0.00     0.051 C 
ATOM     18  C   UNL d   1     122.879 141.116 175.721  0.00  0.00     0.030 C 
ATOM     19  C   UNL d   1     123.727 140.269 176.666  0.00  0.00     0.115 C 
ENDROOT
BRANCH   5  20
ATOM     20  C   UNL d   1     128.591 144.991 169.190  0.00  0.00     0.000 C 
ATOM     21  C   UNL d   1     127.372 145.314 168.318  0.00  0.00     0.000 C 
BRANCH  20  22
ATOM     22  C   UNL d   1     129.874 144.857 168.319  0.00  0.00     0.000 C 
BRANCH  22  23
ATOM     23  C   UNL d   1     129.711 144.369 166.871  0.00  0.00     0.000 C 
BRANCH  23  24
ATOM     24  C   UNL d   1     129.749 142.851 166.658  0.00  0.00     0.000 C 
BRANCH  24  25
ATOM     25  C   UNL d   1     128.928 142.331 165.463  0.00  0.00     0.000 C 
ATOM     26  C   UNL d   1     127.461 142.761 165.549  0.00  0.00     0.000 C 
ATOM     27  C   UNL d   1     129.538 142.829 164.150  0.00  0.00     0.000 C 
ENDBRANCH  24  25
ENDBRANCH  23  24
ENDBRANCH  22  23
ENDBRANCH  20  22
ENDBRANCH   5  20
BRANCH  19  28
ATOM     28  O   UNL d   1     123.032 140.099 177.900  0.00  0.00    -0.385 OA
ATOM     29  H   UNL d   1     122.690 139.186 177.919  0.00  0.00     0.210 HD
ENDBRANCH  19  28
TORSDOF 6
ENDMDL
MODEL 17
REMARK VINA RESULT:    -6.191     14.730     18.993
REMARK INTER + INTRA:          -9.913
REMARK INTER:                  -8.625
REMARK INTRA:                  -1.288
REMARK UNBOUND:                -1.732
REMARK  6 active torsions:
REMARK  status: ('A' for Active; 'I' for Inactive)
REMARK    1  A    between atoms: O_1  and  C_22 
REMARK    2  A    between atoms: C_6  and  C_13 
REMARK    3  A    between atoms: C_13  and  C_21 
REMARK    4  A    between atoms: C_21  and  C_24 
REMARK    5  A    between atoms: C_24  and  C_25 
REMARK    6  A    between atoms: C_25  and  C_26 
ROOT
ATOM      1  C   UNL d   1     127.702 143.365 172.012  0.00  0.00     0.000 C 
ATOM      2  C   UNL d   1     126.551 142.724 171.196  0.00  0.00     0.000 C 
ATOM      3  C   UNL d   1     126.208 143.531 169.943  0.00  0.00     0.005 C 
ATOM      4  C   UNL d   1     127.453 143.620 169.015  0.00  0.00     0.004 C 
ATOM      5  C   UNL d   1     127.718 142.452 173.279  0.00  0.00     0.000 C 
ATOM      6  C   UNL d   1     128.947 143.235 171.113  0.00  0.00     0.000 C 
ATOM      7  C   UNL d   1     127.168 144.548 167.765  0.00  0.00     0.015 C 
ATOM      8  C   UNL d   1     125.458 142.499 172.224  0.00  0.00     0.000 C 
ATOM      9  C   UNL d   1     128.767 143.968 169.773  0.00  0.00     0.000 C 
ATOM     10  C   UNL d   1     126.224 142.051 173.470  0.00  0.00     0.000 C 
ATOM     11  C   UNL d   1     125.018 142.930 169.181  0.00  0.00     0.025 C 
ATOM     12  C   UNL d   1     127.411 144.844 172.373  0.00  0.00     0.000 C 
ATOM     13  C   UNL d   1     125.772 144.271 167.191  0.00  0.00    -0.047 C 
ATOM     14  C   UNL d   1     128.230 144.236 166.671  0.00  0.00     0.006 C 
ATOM     15  C   UNL d   1     124.844 143.533 167.822  0.00  0.00    -0.035 C 
ATOM     16  C   UNL d   1     127.249 146.046 168.149  0.00  0.00     0.004 C 
ATOM     17  C   UNL d   1     125.469 144.869 165.830  0.00  0.00     0.051 C 
ATOM     18  C   UNL d   1     127.940 144.880 165.314  0.00  0.00     0.030 C 
ATOM     19  C   UNL d   1     126.547 144.518 164.806  0.00  0.00     0.115 C 
ENDROOT
BRANCH   5  20
ATOM     20  C   UNL d   1     128.350 142.976 174.615  0.00  0.00     0.000 C 
ATOM     21  C   UNL d   1     129.879 142.868 174.633  0.00  0.00     0.000 C 
BRANCH  20  22
ATOM     22  C   UNL d   1     127.727 142.208 175.817  0.00  0.00     0.000 C 
BRANCH  22  23
ATOM     23  C   UNL d   1     128.479 140.979 176.351  0.00  0.00     0.000 C 
BRANCH  23  24
ATOM     24  C   UNL d   1     128.000 139.615 175.839  0.00  0.00     0.000 C 
BRANCH  24  25
ATOM     25  C   UNL d   1     129.019 138.832 174.992  0.00  0.00     0.000 C 
ATOM     26  C   UNL d   1     128.751 137.324 175.024  0.00  0.00     0.000 C 
ATOM     27  C   UNL d   1     128.994 139.331 173.545  0.00  0.00     0.000 C 
ENDBRANCH  24  25
ENDBRANCH  23  24
ENDBRANCH  22  23
ENDBRANCH  20  22
ENDBRANCH   5  20
BRANCH  19  28
ATOM     28  O   UNL d   1     126.283 145.231 163.600  0.00  0.00    -0.385 OA
ATOM     29  H   UNL d   1     127.047 145.813 163.431  0.00  0.00     0.210 HD
ENDBRANCH  19  28
TORSDOF 6
ENDMDL
MODEL 18
REMARK VINA RESULT:    -6.067     66.256     68.857
REMARK INTER + INTRA:          -9.749
REMARK INTER:                  -9.034
REMARK INTRA:                  -0.715
REMARK UNBOUND:                -1.732
REMARK  6 active torsions:
REMARK  status: ('A' for Active; 'I' for Inactive)
REMARK    1  A    between atoms: O_1  and  C_22 
REMARK    2  A    between atoms: C_6  and  C_13 
REMARK    3  A    between atoms: C_13  and  C_21 
REMARK    4  A    between atoms: C_21  and  C_24 
REMARK    5  A    between atoms: C_24  and  C_25 
REMARK    6  A    between atoms: C_25  and  C_26 
ROOT
ATOM      1  C   UNL d   1     165.425 149.506 118.960  0.00  0.00     0.000 C 
ATOM      2  C   UNL d   1     164.700 148.468 119.853  0.00  0.00     0.000 C 
ATOM      3  C   UNL d   1     165.142 148.551 121.315  0.00  0.00     0.005 C 
ATOM      4  C   UNL d   1     164.827 149.965 121.882  0.00  0.00     0.004 C 
ATOM      5  C   UNL d   1     164.921 149.088 117.541  0.00  0.00     0.000 C 
ATOM      6  C   UNL d   1     164.911 150.875 119.443  0.00  0.00     0.000 C 
ATOM      7  C   UNL d   1     165.379 150.124 123.356  0.00  0.00     0.015 C 
ATOM      8  C   UNL d   1     164.899 147.155 119.119  0.00  0.00     0.000 C 
ATOM      9  C   UNL d   1     165.239 151.121 120.926  0.00  0.00     0.000 C 
ATOM     10  C   UNL d   1     164.752 147.542 117.646  0.00  0.00     0.000 C 
ATOM     11  C   UNL d   1     164.475 147.471 122.179  0.00  0.00     0.025 C 
ATOM     12  C   UNL d   1     166.967 149.403 119.075  0.00  0.00     0.000 C 
ATOM     13  C   UNL d   1     165.096 148.860 124.181  0.00  0.00    -0.047 C 
ATOM     14  C   UNL d   1     164.654 151.329 124.023  0.00  0.00     0.006 C 
ATOM     15  C   UNL d   1     164.674 147.704 123.644  0.00  0.00    -0.035 C 
ATOM     16  C   UNL d   1     166.907 150.376 123.360  0.00  0.00     0.004 C 
ATOM     17  C   UNL d   1     165.304 148.970 125.679  0.00  0.00     0.051 C 
ATOM     18  C   UNL d   1     164.905 151.457 125.527  0.00  0.00     0.030 C 
ATOM     19  C   UNL d   1     164.560 150.168 126.267  0.00  0.00     0.115 C 
ENDROOT
BRANCH   5  20
ATOM     20  C   UNL d   1     165.739 149.493 116.267  0.00  0.00     0.000 C 
ATOM     21  C   UNL d   1     165.181 150.741 115.573  0.00  0.00     0.000 C 
BRANCH  20  22
ATOM     22  C   UNL d   1     165.791 148.289 115.282  0.00  0.00     0.000 C 
BRANCH  22  23
ATOM     23  C   UNL d   1     166.943 148.242 114.266  0.00  0.00     0.000 C 
BRANCH  23  24
ATOM     24  C   UNL d   1     166.541 148.127 112.790  0.00  0.00     0.000 C 
BRANCH  24  25
ATOM     25  C   UNL d   1     166.545 146.699 112.214  0.00  0.00     0.000 C 
ATOM     26  C   UNL d   1     166.899 145.655 113.278  0.00  0.00     0.000 C 
ATOM     27  C   UNL d   1     165.179 146.374 111.605  0.00  0.00     0.000 C 
ENDBRANCH  24  25
ENDBRANCH  23  24
ENDBRANCH  22  23
ENDBRANCH  20  22
ENDBRANCH   5  20
BRANCH  19  28
ATOM     28  O   UNL d   1     164.918 150.301 127.641  0.00  0.00    -0.385 OA
ATOM     29  H   UNL d   1     164.286 150.922 128.049  0.00  0.00     0.210 HD
ENDBRANCH  19  28
TORSDOF 6
ENDMDL
MODEL 19
REMARK VINA RESULT:    -6.011     53.555     55.633
REMARK INTER + INTRA:          -9.676
REMARK INTER:                  -8.415
REMARK INTRA:                  -1.261
REMARK UNBOUND:                -1.732
REMARK  6 active torsions:
REMARK  status: ('A' for Active; 'I' for Inactive)
REMARK    1  A    between atoms: O_1  and  C_22 
REMARK    2  A    between atoms: C_6  and  C_13 
REMARK    3  A    between atoms: C_13  and  C_21 
REMARK    4  A    between atoms: C_21  and  C_24 
REMARK    5  A    between atoms: C_24  and  C_25 
REMARK    6  A    between atoms: C_25  and  C_26 
ROOT
ATOM      1  C   UNL d   1     147.886 152.104 128.124  0.00  0.00     0.000 C 
ATOM      2  C   UNL d   1     148.657 152.326 129.450  0.00  0.00     0.000 C 
ATOM      3  C   UNL d   1     148.203 153.592 130.180  0.00  0.00     0.005 C 
ATOM      4  C   UNL d   1     146.689 153.488 130.524  0.00  0.00     0.004 C 
ATOM      5  C   UNL d   1     148.652 150.878 127.532  0.00  0.00     0.000 C 
ATOM      6  C   UNL d   1     146.436 151.806 128.551  0.00  0.00     0.000 C 
ATOM      7  C   UNL d   1     146.159 154.830 131.174  0.00  0.00     0.015 C 
ATOM      8  C   UNL d   1     150.115 152.218 129.046  0.00  0.00     0.000 C 
ATOM      9  C   UNL d   1     145.819 152.974 129.341  0.00  0.00     0.000 C 
ATOM     10  C   UNL d   1     150.119 151.083 128.018  0.00  0.00     0.000 C 
ATOM     11  C   UNL d   1     149.021 153.845 131.454  0.00  0.00     0.025 C 
ATOM     12  C   UNL d   1     147.963 153.337 127.188  0.00  0.00     0.000 C 
ATOM     13  C   UNL d   1     147.167 155.373 132.197  0.00  0.00    -0.047 C 
ATOM     14  C   UNL d   1     144.820 154.524 131.906  0.00  0.00     0.006 C 
ATOM     15  C   UNL d   1     148.421 154.907 132.320  0.00  0.00    -0.035 C 
ATOM     16  C   UNL d   1     145.921 155.919 130.099  0.00  0.00     0.004 C 
ATOM     17  C   UNL d   1     146.677 156.484 133.105  0.00  0.00     0.051 C 
ATOM     18  C   UNL d   1     144.311 155.668 132.785  0.00  0.00     0.030 C 
ATOM     19  C   UNL d   1     145.366 156.114 133.794  0.00  0.00     0.115 C 
ENDROOT
BRANCH   5  20
ATOM     20  C   UNL d   1     148.592 150.584 125.993  0.00  0.00     0.000 C 
ATOM     21  C   UNL d   1     148.222 149.129 125.679  0.00  0.00     0.000 C 
BRANCH  20  22
ATOM     22  C   UNL d   1     149.953 150.961 125.341  0.00  0.00     0.000 C 
BRANCH  22  23
ATOM     23  C   UNL d   1     149.926 151.833 124.076  0.00  0.00     0.000 C 
BRANCH  23  24
ATOM     24  C   UNL d   1     149.757 151.091 122.744  0.00  0.00     0.000 C 
BRANCH  24  25
ATOM     25  C   UNL d   1     148.359 151.191 122.106  0.00  0.00     0.000 C 
ATOM     26  C   UNL d   1     147.589 149.871 122.209  0.00  0.00     0.000 C 
ATOM     27  C   UNL d   1     147.556 152.312 122.771  0.00  0.00     0.000 C 
ENDBRANCH  24  25
ENDBRANCH  23  24
ENDBRANCH  22  23
ENDBRANCH  20  22
ENDBRANCH   5  20
BRANCH  19  28
ATOM     28  O   UNL d   1     144.885 157.251 134.508  0.00  0.00    -0.385 OA
ATOM     29  H   UNL d   1     144.903 158.009 133.896  0.00  0.00     0.210 HD
ENDBRANCH  19  28
TORSDOF 6
ENDMDL
MODEL 20
REMARK VINA RESULT:    -5.747     28.905     30.887
REMARK INTER + INTRA:          -9.327
REMARK INTER:                  -7.651
REMARK INTRA:                  -1.675
REMARK UNBOUND:                -1.732
REMARK  6 active torsions:
REMARK  status: ('A' for Active; 'I' for Inactive)
REMARK    1  A    between atoms: O_1  and  C_22 
REMARK    2  A    between atoms: C_6  and  C_13 
REMARK    3  A    between atoms: C_13  and  C_21 
REMARK    4  A    between atoms: C_21  and  C_24 
REMARK    5  A    between atoms: C_24  and  C_25 
REMARK    6  A    between atoms: C_25  and  C_26 
ROOT
ATOM      1  C   UNL d   1     111.685 127.897 147.135  0.00  0.00     0.000 C 
ATOM      2  C   UNL d   1     111.065 127.420 145.796  0.00  0.00     0.000 C 
ATOM      3  C   UNL d   1     112.081 127.426 144.653  0.00  0.00     0.005 C 
ATOM      4  C   UNL d   1     113.263 126.473 144.992  0.00  0.00     0.004 C 
ATOM      5  C   UNL d   1     110.420 127.952 148.050  0.00  0.00     0.000 C 
ATOM      6  C   UNL d   1     112.701 126.803 147.514  0.00  0.00     0.000 C 
ATOM      7  C   UNL d   1     114.390 126.543 143.884  0.00  0.00     0.015 C 
ATOM      8  C   UNL d   1     109.819 128.273 145.649  0.00  0.00     0.000 C 
ATOM      9  C   UNL d   1     113.796 126.640 146.445  0.00  0.00     0.000 C 
ATOM     10  C   UNL d   1     109.272 128.357 147.076  0.00  0.00     0.000 C 
ATOM     11  C   UNL d   1     111.442 127.024 143.316  0.00  0.00     0.025 C 
ATOM     12  C   UNL d   1     112.362 129.285 147.006  0.00  0.00     0.000 C 
ATOM     13  C   UNL d   1     113.769 126.564 142.480  0.00  0.00    -0.047 C 
ATOM     14  C   UNL d   1     115.287 125.278 144.016  0.00  0.00     0.006 C 
ATOM     15  C   UNL d   1     112.459 126.755 142.251  0.00  0.00    -0.035 C 
ATOM     16  C   UNL d   1     115.262 127.812 144.050  0.00  0.00     0.004 C 
ATOM     17  C   UNL d   1     114.718 126.341 141.318  0.00  0.00     0.051 C 
ATOM     18  C   UNL d   1     116.271 125.086 142.861  0.00  0.00     0.030 C 
ATOM     19  C   UNL d   1     115.560 125.081 141.510  0.00  0.00     0.115 C 
ENDROOT
BRANCH   5  20
ATOM     20  C   UNL d   1     110.423 128.844 149.339  0.00  0.00     0.000 C 
ATOM     21  C   UNL d   1     111.231 128.227 150.488  0.00  0.00     0.000 C 
BRANCH  20  22
ATOM     22  C   UNL d   1     108.956 129.119 149.781  0.00  0.00     0.000 C 
BRANCH  22  23
ATOM     23  C   UNL d   1     108.512 130.582 149.925  0.00  0.00     0.000 C 
BRANCH  23  24
ATOM     24  C   UNL d   1     109.433 131.636 149.298  0.00  0.00     0.000 C 
BRANCH  24  25
ATOM     25  C   UNL d   1     108.937 132.242 147.973  0.00  0.00     0.000 C 
ATOM     26  C   UNL d   1     109.938 132.024 146.834  0.00  0.00     0.000 C 
ATOM     27  C   UNL d   1     107.582 131.640 147.593  0.00  0.00     0.000 C 
ENDBRANCH  24  25
ENDBRANCH  23  24
ENDBRANCH  22  23
ENDBRANCH  20  22
ENDBRANCH   5  20
BRANCH  19  28
ATOM     28  O   UNL d   1     116.529 125.013 140.466  0.00  0.00    -0.385 OA
ATOM     29  H   UNL d   1     116.055 124.808 139.640  0.00  0.00     0.210 HD
ENDBRANCH  19  28
TORSDOF 6
ENDMDL
