REMARK  6 active torsions:
REMARK  status: ('A' for Active; 'I' for Inactive)
REMARK    1  A    between atoms: O_1  and  C_22 
REMARK    2  A    between atoms: C_6  and  C_13 
REMARK    3  A    between atoms: C_13  and  C_21 
REMARK    4  A    between atoms: C_21  and  C_24 
REMARK    5  A    between atoms: C_24  and  C_25 
REMARK    6  A    between atoms: C_25  and  C_26 
ROOT
ATOM      1  C   UNL d   1     157.773 156.612 107.871  0.00  0.00     0.000 C 
ATOM      2  C   UNL d   1     158.979 157.159 108.676  0.00  0.00     0.000 C 
ATOM      3  C   UNL d   1     160.047 156.092 108.919  0.00  0.00     0.005 C 
ATOM      4  C   UNL d   1     160.587 155.566 107.559  0.00  0.00     0.004 C 
ATOM      5  C   UNL d   1     156.798 157.831 107.921  0.00  0.00     0.000 C 
ATOM      6  C   UNL d   1     158.338 156.301 106.471  0.00  0.00     0.000 C 
ATOM      7  C   UNL d   1     161.609 154.376 107.772  0.00  0.00     0.015 C 
ATOM      8  C   UNL d   1     158.340 157.820 109.883  0.00  0.00     0.000 C 
ATOM      9  C   UNL d   1     159.465 155.256 106.525  0.00  0.00     0.000 C 
ATOM     10  C   UNL d   1     157.087 158.484 109.307  0.00  0.00     0.000 C 
ATOM     11  C   UNL d   1     161.202 156.622 109.781  0.00  0.00     0.025 C 
ATOM     12  C   UNL d   1     157.153 155.352 108.527  0.00  0.00     0.000 C 
ATOM     13  C   UNL d   1     162.562 154.682 108.936  0.00  0.00    -0.047 C 
ATOM     14  C   UNL d   1     162.446 154.210 106.470  0.00  0.00     0.006 C 
ATOM     15  C   UNL d   1     162.377 155.694 109.799  0.00  0.00    -0.035 C 
ATOM     16  C   UNL d   1     160.870 153.051 108.081  0.00  0.00     0.004 C 
ATOM     17  C   UNL d   1     163.771 153.777 109.075  0.00  0.00     0.051 C 
ATOM     18  C   UNL d   1     163.637 153.261 106.609  0.00  0.00     0.030 C 
ATOM     19  C   UNL d   1     164.548 153.666 107.765  0.00  0.00     0.115 C 
ENDROOT
BRANCH   5  20
ATOM     20  C   UNL d   1     155.262 157.617 107.694  0.00  0.00     0.000 C 
ATOM     21  C   UNL d   1     154.803 158.038 106.292  0.00  0.00     0.000 C 
BRANCH  20  22
ATOM     22  C   UNL d   1     154.466 158.382 108.790  0.00  0.00     0.000 C 
BRANCH  22  23
ATOM     23  C   UNL d   1     153.609 157.557 109.763  0.00  0.00     0.000 C 
BRANCH  23  24
ATOM     24  C   UNL d   1     154.294 157.113 111.061  0.00  0.00     0.000 C 
BRANCH  24  25
ATOM     25  C   UNL d   1     154.344 155.593 111.295  0.00  0.00     0.000 C 
ATOM     26  C   UNL d   1     153.887 154.810 110.061  0.00  0.00     0.000 C 
ATOM     27  C   UNL d   1     155.762 155.166 111.683  0.00  0.00     0.000 C 
ENDBRANCH  24  25
ENDBRANCH  23  24
ENDBRANCH  22  23
ENDBRANCH  20  22
ENDBRANCH   5  20
BRANCH  19  28
ATOM     28  O   UNL d   1     165.575 152.688 107.922  0.00  0.00    -0.385 OA
ATOM     29  H   UNL d   1     165.260 151.864 107.509  0.00  0.00     0.210 HD
ENDBRANCH  19  28
TORSDOF 6
