REMARK  6 active torsions:
REMARK  status: ('A' for Active; 'I' for Inactive)
REMARK    1  A    between atoms: O_1  and  C_22 
REMARK    2  A    between atoms: C_6  and  C_13 
REMARK    3  A    between atoms: C_13  and  C_21 
REMARK    4  A    between atoms: C_21  and  C_24 
REMARK    5  A    between atoms: C_24  and  C_25 
REMARK    6  A    between atoms: C_25  and  C_26 
ROOT
ATOM      1  C   UNL d   1     129.118 124.586 171.367  0.00  0.00     0.000 C 
ATOM      2  C   UNL d   1     130.431 124.205 170.636  0.00  0.00     0.000 C 
ATOM      3  C   UNL d   1     130.608 122.691 170.514  0.00  0.00     0.005 C 
ATOM      4  C   UNL d   1     129.424 122.085 169.706  0.00  0.00     0.004 C 
ATOM      5  C   UNL d   1     129.283 126.134 171.496  0.00  0.00     0.000 C 
ATOM      6  C   UNL d   1     127.990 124.140 170.417  0.00  0.00     0.000 C 
ATOM      7  C   UNL d   1     129.514 120.506 169.660  0.00  0.00     0.015 C 
ATOM      8  C   UNL d   1     131.498 124.993 171.373  0.00  0.00     0.000 C 
ATOM      9  C   UNL d   1     128.033 122.626 170.146  0.00  0.00     0.000 C 
ATOM     10  C   UNL d   1     130.820 126.334 171.660  0.00  0.00     0.000 C 
ATOM     11  C   UNL d   1     131.945 122.321 169.856  0.00  0.00     0.025 C 
ATOM     12  C   UNL d   1     129.000 123.904 172.753  0.00  0.00     0.000 C 
ATOM     13  C   UNL d   1     130.958 120.051 169.408  0.00  0.00    -0.047 C 
ATOM     14  C   UNL d   1     128.618 119.998 168.493  0.00  0.00     0.006 C 
ATOM     15  C   UNL d   1     132.017 120.875 169.476  0.00  0.00    -0.035 C 
ATOM     16  C   UNL d   1     129.031 119.878 170.991  0.00  0.00     0.004 C 
ATOM     17  C   UNL d   1     131.155 118.590 169.053  0.00  0.00     0.051 C 
ATOM     18  C   UNL d   1     128.791 118.512 168.172  0.00  0.00     0.030 C 
ATOM     19  C   UNL d   1     130.252 118.163 167.898  0.00  0.00     0.115 C 
ENDROOT
BRANCH   5  20
ATOM     20  C   UNL d   1     128.479 126.921 172.588  0.00  0.00     0.000 C 
ATOM     21  C   UNL d   1     127.328 127.747 172.001  0.00  0.00     0.000 C 
BRANCH  20  22
ATOM     22  C   UNL d   1     129.454 127.826 173.395  0.00  0.00     0.000 C 
BRANCH  22  23
ATOM     23  C   UNL d   1     129.852 127.373 174.808  0.00  0.00     0.000 C 
BRANCH  23  24
ATOM     24  C   UNL d   1     130.929 128.207 175.511  0.00  0.00     0.000 C 
BRANCH  24  25
ATOM     25  C   UNL d   1     132.278 127.497 175.728  0.00  0.00     0.000 C 
ATOM     26  C   UNL d   1     132.545 126.438 174.655  0.00  0.00     0.000 C 
ATOM     27  C   UNL d   1     133.416 128.521 175.739  0.00  0.00     0.000 C 
ENDBRANCH  24  25
ENDBRANCH  23  24
ENDBRANCH  22  23
ENDBRANCH  20  22
ENDBRANCH   5  20
BRANCH  19  28
ATOM     28  O   UNL d   1     130.374 116.753 167.717  0.00  0.00    -0.385 OA
ATOM     29  H   UNL d   1     130.892 116.607 166.904  0.00  0.00     0.210 HD
ENDBRANCH  19  28
TORSDOF 6
