REMARK  6 active torsions:
REMARK  status: ('A' for Active; 'I' for Inactive)
REMARK    1  A    between atoms: O_1  and  C_22 
REMARK    2  A    between atoms: C_6  and  C_13 
REMARK    3  A    between atoms: C_13  and  C_21 
REMARK    4  A    between atoms: C_21  and  C_24 
REMARK    5  A    between atoms: C_24  and  C_25 
REMARK    6  A    between atoms: C_25  and  C_26 
ROOT
ATOM      1  C   UNL d   1     136.863 123.685 144.270  0.00  0.00     0.000 C 
ATOM      2  C   UNL d   1     137.383 125.043 144.807  0.00  0.00     0.000 C 
ATOM      3  C   UNL d   1     136.442 125.654 145.846  0.00  0.00     0.005 C 
ATOM      4  C   UNL d   1     136.298 124.691 147.059  0.00  0.00     0.004 C 
ATOM      5  C   UNL d   1     137.900 123.391 143.139  0.00  0.00     0.000 C 
ATOM      6  C   UNL d   1     136.940 122.726 145.473  0.00  0.00     0.000 C 
ATOM      7  C   UNL d   1     135.240 125.238 148.100  0.00  0.00     0.015 C 
ATOM      8  C   UNL d   1     137.677 125.842 143.550  0.00  0.00     0.000 C 
ATOM      9  C   UNL d   1     136.069 123.207 146.647  0.00  0.00     0.000 C 
ATOM     10  C   UNL d   1     138.273 124.804 142.597  0.00  0.00     0.000 C 
ATOM     11  C   UNL d   1     136.926 127.033 146.318  0.00  0.00     0.025 C 
ATOM     12  C   UNL d   1     135.421 123.788 143.714  0.00  0.00     0.000 C 
ATOM     13  C   UNL d   1     135.414 126.749 148.307  0.00  0.00    -0.047 C 
ATOM     14  C   UNL d   1     135.472 124.516 149.460  0.00  0.00     0.006 C 
ATOM     15  C   UNL d   1     136.183 127.521 147.522  0.00  0.00    -0.035 C 
ATOM     16  C   UNL d   1     133.792 124.976 147.619  0.00  0.00     0.004 C 
ATOM     17  C   UNL d   1     134.672 127.361 149.480  0.00  0.00     0.051 C 
ATOM     18  C   UNL d   1     134.684 125.113 150.627  0.00  0.00     0.030 C 
ATOM     19  C   UNL d   1     134.950 126.608 150.780  0.00  0.00     0.115 C 
ENDROOT
BRANCH   5  20
ATOM     20  C   UNL d   1     137.534 122.405 141.976  0.00  0.00     0.000 C 
ATOM     21  C   UNL d   1     138.496 121.214 141.881  0.00  0.00     0.000 C 
BRANCH  20  22
ATOM     22  C   UNL d   1     137.488 123.187 140.632  0.00  0.00     0.000 C 
BRANCH  22  23
ATOM     23  C   UNL d   1     138.815 123.436 139.899  0.00  0.00     0.000 C 
BRANCH  23  24
ATOM     24  C   UNL d   1     139.229 122.381 138.867  0.00  0.00     0.000 C 
BRANCH  24  25
ATOM     25  C   UNL d   1     140.727 122.029 138.847  0.00  0.00     0.000 C 
ATOM     26  C   UNL d   1     141.269 121.757 140.253  0.00  0.00     0.000 C 
ATOM     27  C   UNL d   1     140.969 120.809 137.955  0.00  0.00     0.000 C 
ENDBRANCH  24  25
ENDBRANCH  23  24
ENDBRANCH  22  23
ENDBRANCH  20  22
ENDBRANCH   5  20
BRANCH  19  28
ATOM     28  O   UNL d   1     134.110 127.136 151.804  0.00  0.00    -0.385 OA
ATOM     29  H   UNL d   1     134.405 128.048 151.984  0.00  0.00     0.210 HD
ENDBRANCH  19  28
TORSDOF 6
