REMARK  6 active torsions:
REMARK  status: ('A' for Active; 'I' for Inactive)
REMARK    1  A    between atoms: O_1  and  C_22 
REMARK    2  A    between atoms: C_6  and  C_13 
REMARK    3  A    between atoms: C_13  and  C_21 
REMARK    4  A    between atoms: C_21  and  C_24 
REMARK    5  A    between atoms: C_24  and  C_25 
REMARK    6  A    between atoms: C_25  and  C_26 
ROOT
ATOM      1  C   UNL d   1     133.950 125.868 149.718  0.00  0.00     0.000 C 
ATOM      2  C   UNL d   1     134.372 126.474 151.081  0.00  0.00     0.000 C 
ATOM      3  C   UNL d   1     133.201 126.567 152.061  0.00  0.00     0.005 C 
ATOM      4  C   UNL d   1     132.627 125.147 152.334  0.00  0.00     0.004 C 
ATOM      5  C   UNL d   1     135.262 126.050 148.889  0.00  0.00     0.000 C 
ATOM      6  C   UNL d   1     133.589 124.403 150.030  0.00  0.00     0.000 C 
ATOM      7  C   UNL d   1     131.340 125.218 153.251  0.00  0.00     0.015 C 
ATOM      8  C   UNL d   1     135.090 127.756 150.701  0.00  0.00     0.000 C 
ATOM      9  C   UNL d   1     132.435 124.299 151.043  0.00  0.00     0.000 C 
ATOM     10  C   UNL d   1     135.878 127.368 149.448  0.00  0.00     0.000 C 
ATOM     11  C   UNL d   1     133.610 127.237 153.381  0.00  0.00     0.025 C 
ATOM     12  C   UNL d   1     132.758 126.626 149.082  0.00  0.00     0.000 C 
ATOM     13  C   UNL d   1     131.545 126.221 154.396  0.00  0.00    -0.047 C 
ATOM     14  C   UNL d   1     131.095 123.807 153.861  0.00  0.00     0.006 C 
ATOM     15  C   UNL d   1     132.568 127.089 154.446  0.00  0.00    -0.035 C 
ATOM     16  C   UNL d   1     130.095 125.652 152.440  0.00  0.00     0.004 C 
ATOM     17  C   UNL d   1     130.522 126.187 155.515  0.00  0.00     0.051 C 
ATOM     18  C   UNL d   1     130.030 123.776 154.958  0.00  0.00     0.030 C 
ATOM     19  C   UNL d   1     130.337 124.776 156.069  0.00  0.00     0.115 C 
ENDROOT
BRANCH   5  20
ATOM     20  C   UNL d   1     135.204 126.060 147.322  0.00  0.00     0.000 C 
ATOM     21  C   UNL d   1     135.005 127.466 146.743  0.00  0.00     0.000 C 
BRANCH  20  22
ATOM     22  C   UNL d   1     134.078 125.099 146.841  0.00  0.00     0.000 C 
BRANCH  22  23
ATOM     23  C   UNL d   1     134.476 123.670 146.441  0.00  0.00     0.000 C 
BRANCH  23  24
ATOM     24  C   UNL d   1     134.874 122.730 147.585  0.00  0.00     0.000 C 
BRANCH  24  25
ATOM     25  C   UNL d   1     136.383 122.652 147.882  0.00  0.00     0.000 C 
ATOM     26  C   UNL d   1     137.212 123.379 146.819  0.00  0.00     0.000 C 
ATOM     27  C   UNL d   1     136.679 123.243 149.262  0.00  0.00     0.000 C 
ENDBRANCH  24  25
ENDBRANCH  23  24
ENDBRANCH  22  23
ENDBRANCH  20  22
ENDBRANCH   5  20
BRANCH  19  28
ATOM     28  O   UNL d   1     129.261 124.789 157.006  0.00  0.00    -0.385 OA
ATOM     29  H   UNL d   1     128.680 124.036 156.793  0.00  0.00     0.210 HD
ENDBRANCH  19  28
TORSDOF 6
