REMARK  6 active torsions:
REMARK  status: ('A' for Active; 'I' for Inactive)
REMARK    1  A    between atoms: O_1  and  C_22 
REMARK    2  A    between atoms: C_6  and  C_13 
REMARK    3  A    between atoms: C_13  and  C_21 
REMARK    4  A    between atoms: C_21  and  C_24 
REMARK    5  A    between atoms: C_24  and  C_25 
REMARK    6  A    between atoms: C_25  and  C_26 
ROOT
ATOM      1  C   UNL d   1     151.253 156.618 153.036  0.00  0.00     0.000 C 
ATOM      2  C   UNL d   1     151.005 155.324 153.853  0.00  0.00     0.000 C 
ATOM      3  C   UNL d   1     150.499 155.618 155.266  0.00  0.00     0.005 C 
ATOM      4  C   UNL d   1     149.153 156.396 155.192  0.00  0.00     0.004 C 
ATOM      5  C   UNL d   1     151.907 156.037 151.741  0.00  0.00     0.000 C 
ATOM      6  C   UNL d   1     149.854 157.230 152.827  0.00  0.00     0.000 C 
ATOM      7  C   UNL d   1     148.660 156.819 156.635  0.00  0.00     0.015 C 
ATOM      8  C   UNL d   1     152.301 154.548 153.704  0.00  0.00     0.000 C 
ATOM      9  C   UNL d   1     149.168 157.563 154.162  0.00  0.00     0.000 C 
ATOM     10  C   UNL d   1     152.704 154.798 152.249  0.00  0.00     0.000 C 
ATOM     11  C   UNL d   1     150.327 154.336 156.092  0.00  0.00     0.025 C 
ATOM     12  C   UNL d   1     152.202 157.601 153.768  0.00  0.00     0.000 C 
ATOM     13  C   UNL d   1     148.856 155.671 157.634  0.00  0.00    -0.047 C 
ATOM     14  C   UNL d   1     147.143 157.159 156.554  0.00  0.00     0.006 C 
ATOM     15  C   UNL d   1     149.578 154.570 157.366  0.00  0.00    -0.035 C 
ATOM     16  C   UNL d   1     149.437 158.055 157.153  0.00  0.00     0.004 C 
ATOM     17  C   UNL d   1     148.172 155.821 158.979  0.00  0.00     0.051 C 
ATOM     18  C   UNL d   1     146.471 157.351 157.915  0.00  0.00     0.030 C 
ATOM     19  C   UNL d   1     146.687 156.145 158.825  0.00  0.00     0.115 C 
ENDROOT
BRANCH   5  20
ATOM     20  C   UNL d   1     152.790 156.956 150.829  0.00  0.00     0.000 C 
ATOM     21  C   UNL d   1     151.959 157.830 149.882  0.00  0.00     0.000 C 
BRANCH  20  22
ATOM     22  C   UNL d   1     153.796 156.077 150.030  0.00  0.00     0.000 C 
BRANCH  22  23
ATOM     23  C   UNL d   1     155.227 156.607 149.850  0.00  0.00     0.000 C 
BRANCH  23  24
ATOM     24  C   UNL d   1     155.372 157.921 149.073  0.00  0.00     0.000 C 
BRANCH  24  25
ATOM     25  C   UNL d   1     155.443 157.778 147.542  0.00  0.00     0.000 C 
ATOM     26  C   UNL d   1     155.175 159.108 146.831  0.00  0.00     0.000 C 
ATOM     27  C   UNL d   1     156.814 157.238 147.127  0.00  0.00     0.000 C 
ENDBRANCH  24  25
ENDBRANCH  23  24
ENDBRANCH  22  23
ENDBRANCH  20  22
ENDBRANCH   5  20
BRANCH  19  28
ATOM     28  O   UNL d   1     146.141 156.422 160.113  0.00  0.00    -0.385 OA
ATOM     29  H   UNL d   1     145.516 155.705 160.326  0.00  0.00     0.210 HD
ENDBRANCH  19  28
TORSDOF 6
