REMARK  6 active torsions:
REMARK  status: ('A' for Active; 'I' for Inactive)
REMARK    1  A    between atoms: O_1  and  C_22 
REMARK    2  A    between atoms: C_6  and  C_13 
REMARK    3  A    between atoms: C_13  and  C_21 
REMARK    4  A    between atoms: C_21  and  C_24 
REMARK    5  A    between atoms: C_24  and  C_25 
REMARK    6  A    between atoms: C_25  and  C_26 
ROOT
ATOM      1  C   UNL d   1     154.744 100.078 120.132  0.00  0.00     0.000 C 
ATOM      2  C   UNL d   1     154.874  99.669 118.643  0.00  0.00     0.000 C 
ATOM      3  C   UNL d   1     156.332  99.606 118.184  0.00  0.00     0.005 C 
ATOM      4  C   UNL d   1     157.106  98.555 119.031  0.00  0.00     0.004 C 
ATOM      5  C   UNL d   1     153.195 100.225 120.271  0.00  0.00     0.000 C 
ATOM      6  C   UNL d   1     155.348  98.900 120.922  0.00  0.00     0.000 C 
ATOM      7  C   UNL d   1     158.644  98.548 118.662  0.00  0.00     0.015 C 
ATOM      8  C   UNL d   1     153.938 100.622 117.922  0.00  0.00     0.000 C 
ATOM      9  C   UNL d   1     156.823  98.662 120.558  0.00  0.00     0.000 C 
ATOM     10  C   UNL d   1     152.741 100.734 118.869  0.00  0.00     0.000 C 
ATOM     11  C   UNL d   1     156.449  99.274 116.689  0.00  0.00     0.025 C 
ATOM     12  C   UNL d   1     155.477 101.407 120.442  0.00  0.00     0.000 C 
ATOM     13  C   UNL d   1     158.839  98.636 117.142  0.00  0.00    -0.047 C 
ATOM     14  C   UNL d   1     159.263  97.212 119.169  0.00  0.00     0.006 C 
ATOM     15  C   UNL d   1     157.849  98.935 116.285  0.00  0.00    -0.035 C 
ATOM     16  C   UNL d   1     159.385  99.739 119.318  0.00  0.00     0.004 C 
ATOM     17  C   UNL d   1     160.234  98.350 116.621  0.00  0.00     0.051 C 
ATOM     18  C   UNL d   1     160.687  96.954 118.674  0.00  0.00     0.030 C 
ATOM     19  C   UNL d   1     160.775  97.024 117.152  0.00  0.00     0.115 C 
ENDROOT
BRANCH   5  20
ATOM     20  C   UNL d   1     152.590 101.097 121.424  0.00  0.00     0.000 C 
ATOM     21  C   UNL d   1     152.662 102.601 121.134  0.00  0.00     0.000 C 
BRANCH  20  22
ATOM     22  C   UNL d   1     153.310 100.757 122.761  0.00  0.00     0.000 C 
BRANCH  22  23
ATOM     23  C   UNL d   1     152.749  99.601 123.604  0.00  0.00     0.000 C 
BRANCH  23  24
ATOM     24  C   UNL d   1     153.678  98.398 123.809  0.00  0.00     0.000 C 
BRANCH  24  25
ATOM     25  C   UNL d   1     153.034  97.175 124.488  0.00  0.00     0.000 C 
ATOM     26  C   UNL d   1     152.380  97.542 125.824  0.00  0.00     0.000 C 
ATOM     27  C   UNL d   1     151.993  96.545 123.558  0.00  0.00     0.000 C 
ENDBRANCH  24  25
ENDBRANCH  23  24
ENDBRANCH  22  23
ENDBRANCH  20  22
ENDBRANCH   5  20
BRANCH  19  28
ATOM     28  O   UNL d   1     162.137  96.890 116.750  0.00  0.00    -0.385 OA
ATOM     29  H   UNL d   1     162.567  96.278 117.375  0.00  0.00     0.210 HD
ENDBRANCH  19  28
TORSDOF 6
