REMARK  6 active torsions:
REMARK  status: ('A' for Active; 'I' for Inactive)
REMARK    1  A    between atoms: O_1  and  C_22 
REMARK    2  A    between atoms: C_6  and  C_13 
REMARK    3  A    between atoms: C_13  and  C_21 
REMARK    4  A    between atoms: C_21  and  C_24 
REMARK    5  A    between atoms: C_24  and  C_25 
REMARK    6  A    between atoms: C_25  and  C_26 
ROOT
ATOM      1  C   UNL d   1     137.200 122.891 144.240  0.00  0.00     0.000 C 
ATOM      2  C   UNL d   1     137.378 124.415 144.460  0.00  0.00     0.000 C 
ATOM      3  C   UNL d   1     136.379 124.976 145.473  0.00  0.00     0.005 C 
ATOM      4  C   UNL d   1     136.572 124.275 146.848  0.00  0.00     0.004 C 
ATOM      5  C   UNL d   1     138.202 122.635 143.070  0.00  0.00     0.000 C 
ATOM      6  C   UNL d   1     137.603 122.246 145.581  0.00  0.00     0.000 C 
ATOM      7  C   UNL d   1     135.477 124.748 147.887  0.00  0.00     0.015 C 
ATOM      8  C   UNL d   1     137.370 124.987 143.054  0.00  0.00     0.000 C 
ATOM      9  C   UNL d   1     136.715 122.729 146.740  0.00  0.00     0.000 C 
ATOM     10  C   UNL d   1     138.155 123.954 142.242  0.00  0.00     0.000 C 
ATOM     11  C   UNL d   1     136.514 126.498 145.628  0.00  0.00     0.025 C 
ATOM     12  C   UNL d   1     135.748 122.522 143.845  0.00  0.00     0.000 C 
ATOM     13  C   UNL d   1     135.262 126.265 147.797  0.00  0.00    -0.047 C 
ATOM     14  C   UNL d   1     135.978 124.398 149.319  0.00  0.00     0.006 C 
ATOM     15  C   UNL d   1     135.749 127.024 146.802  0.00  0.00    -0.035 C 
ATOM     16  C   UNL d   1     134.120 124.046 147.631  0.00  0.00     0.004 C 
ATOM     17  C   UNL d   1     134.462 126.902 148.917  0.00  0.00     0.051 C 
ATOM     18  C   UNL d   1     135.139 125.010 150.443  0.00  0.00     0.030 C 
ATOM     19  C   UNL d   1     135.012 126.523 150.290  0.00  0.00     0.115 C 
ENDROOT
BRANCH   5  20
ATOM     20  C   UNL d   1     138.033 121.373 142.155  0.00  0.00     0.000 C 
ATOM     21  C   UNL d   1     138.259 120.056 142.908  0.00  0.00     0.000 C 
BRANCH  20  22
ATOM     22  C   UNL d   1     138.996 121.486 140.937  0.00  0.00     0.000 C 
BRANCH  22  23
ATOM     23  C   UNL d   1     140.421 122.001 141.194  0.00  0.00     0.000 C 
BRANCH  23  24
ATOM     24  C   UNL d   1     141.069 122.799 140.056  0.00  0.00     0.000 C 
BRANCH  24  25
ATOM     25  C   UNL d   1     141.843 121.963 139.021  0.00  0.00     0.000 C 
ATOM     26  C   UNL d   1     141.002 120.803 138.479  0.00  0.00     0.000 C 
ATOM     27  C   UNL d   1     142.302 122.853 137.863  0.00  0.00     0.000 C 
ENDBRANCH  24  25
ENDBRANCH  23  24
ENDBRANCH  22  23
ENDBRANCH  20  22
ENDBRANCH   5  20
BRANCH  19  28
ATOM     28  O   UNL d   1     134.131 127.027 151.293  0.00  0.00    -0.385 OA
ATOM     29  H   UNL d   1     134.208 127.999 151.288  0.00  0.00     0.210 HD
ENDBRANCH  19  28
TORSDOF 6
