MODEL 1
REMARK VINA RESULT:   -10.728      0.000      0.000
REMARK INTER + INTRA:         -14.885
REMARK INTER:                 -14.178
REMARK INTRA:                  -0.707
REMARK UNBOUND:                -0.707
REMARK  6 active torsions:
REMARK  status: ('A' for Active; 'I' for Inactive)
REMARK    1  A    between atoms: O_1  and  C_22 
REMARK    2  A    between atoms: C_6  and  C_13 
REMARK    3  A    between atoms: C_13  and  C_21 
REMARK    4  A    between atoms: C_21  and  C_24 
REMARK    5  A    between atoms: C_24  and  C_25 
REMARK    6  A    between atoms: C_25  and  C_26 
ROOT
ATOM      1  C   UNL d   1     137.145 123.637 143.296  0.00  0.00     0.000 C 
ATOM      2  C   UNL d   1     136.933 122.764 144.559  0.00  0.00     0.000 C 
ATOM      3  C   UNL d   1     136.880 123.598 145.840  0.00  0.00     0.005 C 
ATOM      4  C   UNL d   1     135.700 124.610 145.761  0.00  0.00     0.004 C 
ATOM      5  C   UNL d   1     137.326 122.541 142.198  0.00  0.00     0.000 C 
ATOM      6  C   UNL d   1     135.852 124.466 143.165  0.00  0.00     0.000 C 
ATOM      7  C   UNL d   1     135.687 125.570 147.019  0.00  0.00     0.015 C 
ATOM      8  C   UNL d   1     138.005 121.696 144.445  0.00  0.00     0.000 C 
ATOM      9  C   UNL d   1     135.613 125.355 144.398  0.00  0.00     0.000 C 
ATOM     10  C   UNL d   1     138.032 121.372 142.950  0.00  0.00     0.000 C 
ATOM     11  C   UNL d   1     136.745 122.720 147.092  0.00  0.00     0.025 C 
ATOM     12  C   UNL d   1     138.395 124.545 143.414  0.00  0.00     0.000 C 
ATOM     13  C   UNL d   1     135.969 124.782 148.306  0.00  0.00    -0.047 C 
ATOM     14  C   UNL d   1     134.275 126.216 147.127  0.00  0.00     0.006 C 
ATOM     15  C   UNL d   1     136.414 123.514 148.317  0.00  0.00    -0.035 C 
ATOM     16  C   UNL d   1     136.755 126.684 146.886  0.00  0.00     0.004 C 
ATOM     17  C   UNL d   1     135.706 125.505 149.613  0.00  0.00     0.051 C 
ATOM     18  C   UNL d   1     134.035 126.981 148.430  0.00  0.00     0.030 C 
ATOM     19  C   UNL d   1     134.303 126.107 149.653  0.00  0.00     0.115 C 
ENDROOT
BRANCH   5  20
ATOM     20  C   UNL d   1     138.059 122.889 140.856  0.00  0.00     0.000 C 
ATOM     21  C   UNL d   1     137.138 123.567 139.834  0.00  0.00     0.000 C 
BRANCH  20  22
ATOM     22  C   UNL d   1     138.689 121.596 140.262  0.00  0.00     0.000 C 
BRANCH  22  23
ATOM     23  C   UNL d   1     139.571 121.737 139.013  0.00  0.00     0.000 C 
BRANCH  23  24
ATOM     24  C   UNL d   1     140.831 120.863 138.970  0.00  0.00     0.000 C 
BRANCH  24  25
ATOM     25  C   UNL d   1     142.151 121.592 139.279  0.00  0.00     0.000 C 
ATOM     26  C   UNL d   1     142.688 122.344 138.057  0.00  0.00     0.000 C 
ATOM     27  C   UNL d   1     141.954 122.568 140.441  0.00  0.00     0.000 C 
ENDBRANCH  24  25
ENDBRANCH  23  24
ENDBRANCH  22  23
ENDBRANCH  20  22
ENDBRANCH   5  20
BRANCH  19  28
ATOM     28  O   UNL d   1     134.176 126.896 150.835  0.00  0.00    -0.385 OA
ATOM     29  H   UNL d   1     133.245 126.849 151.119  0.00  0.00     0.210 HD
ENDBRANCH  19  28
TORSDOF 6
ENDMDL
MODEL 2
REMARK VINA RESULT:   -10.149      3.103      8.852
REMARK INTER + INTRA:         -14.119
REMARK INTER:                 -12.791
REMARK INTRA:                  -1.328
REMARK UNBOUND:                -0.707
REMARK  6 active torsions:
REMARK  status: ('A' for Active; 'I' for Inactive)
REMARK    1  A    between atoms: O_1  and  C_22 
REMARK    2  A    between atoms: C_6  and  C_13 
REMARK    3  A    between atoms: C_13  and  C_21 
REMARK    4  A    between atoms: C_21  and  C_24 
REMARK    5  A    between atoms: C_24  and  C_25 
REMARK    6  A    between atoms: C_25  and  C_26 
ROOT
ATOM      1  C   UNL d   1     136.427 125.266 146.420  0.00  0.00     0.000 C 
ATOM      2  C   UNL d   1     137.143 123.893 146.502  0.00  0.00     0.000 C 
ATOM      3  C   UNL d   1     137.079 123.125 145.181  0.00  0.00     0.005 C 
ATOM      4  C   UNL d   1     137.769 123.951 144.057  0.00  0.00     0.004 C 
ATOM      5  C   UNL d   1     136.500 125.733 147.909  0.00  0.00     0.000 C 
ATOM      6  C   UNL d   1     137.280 126.101 145.445  0.00  0.00     0.000 C 
ATOM      7  C   UNL d   1     137.618 123.240 142.652  0.00  0.00     0.015 C 
ATOM      8  C   UNL d   1     136.542 123.245 147.736  0.00  0.00     0.000 C 
ATOM      9  C   UNL d   1     137.360 125.452 144.052  0.00  0.00     0.000 C 
ATOM     10  C   UNL d   1     136.406 124.407 148.722  0.00  0.00     0.000 C 
ATOM     11  C   UNL d   1     137.724 121.737 145.292  0.00  0.00     0.025 C 
ATOM     12  C   UNL d   1     134.964 125.136 145.929  0.00  0.00     0.000 C 
ATOM     13  C   UNL d   1     137.853 121.728 142.781  0.00  0.00    -0.047 C 
ATOM     14  C   UNL d   1     138.685 123.832 141.686  0.00  0.00     0.006 C 
ATOM     15  C   UNL d   1     137.920 121.086 143.959  0.00  0.00    -0.035 C 
ATOM     16  C   UNL d   1     136.205 123.464 142.058  0.00  0.00     0.004 C 
ATOM     17  C   UNL d   1     138.027 120.958 141.486  0.00  0.00     0.051 C 
ATOM     18  C   UNL d   1     138.822 123.075 140.364  0.00  0.00     0.030 C 
ATOM     19  C   UNL d   1     139.092 121.590 140.592  0.00  0.00     0.115 C 
ENDROOT
BRANCH   5  20
ATOM     20  C   UNL d   1     135.492 126.809 148.443  0.00  0.00     0.000 C 
ATOM     21  C   UNL d   1     135.788 128.217 147.913  0.00  0.00     0.000 C 
BRANCH  20  22
ATOM     22  C   UNL d   1     135.495 126.792 149.999  0.00  0.00     0.000 C 
BRANCH  22  23
ATOM     23  C   UNL d   1     134.175 126.468 150.715  0.00  0.00     0.000 C 
BRANCH  23  24
ATOM     24  C   UNL d   1     133.189 125.576 149.952  0.00  0.00     0.000 C 
BRANCH  24  25
ATOM     25  C   UNL d   1     133.369 124.062 150.161  0.00  0.00     0.000 C 
ATOM     26  C   UNL d   1     132.591 123.557 151.380  0.00  0.00     0.000 C 
ATOM     27  C   UNL d   1     132.923 123.300 148.910  0.00  0.00     0.000 C 
ENDBRANCH  24  25
ENDBRANCH  23  24
ENDBRANCH  22  23
ENDBRANCH  20  22
ENDBRANCH   5  20
BRANCH  19  28
ATOM     28  O   UNL d   1     139.098 120.913 139.336  0.00  0.00    -0.385 OA
ATOM     29  H   UNL d   1     139.834 121.277 138.811  0.00  0.00     0.210 HD
ENDBRANCH  19  28
TORSDOF 6
ENDMDL
MODEL 3
REMARK VINA RESULT:    -9.628      3.631     10.487
REMARK INTER + INTRA:         -13.430
REMARK INTER:                 -12.610
REMARK INTRA:                  -0.820
REMARK UNBOUND:                -0.707
REMARK  6 active torsions:
REMARK  status: ('A' for Active; 'I' for Inactive)
REMARK    1  A    between atoms: O_1  and  C_22 
REMARK    2  A    between atoms: C_6  and  C_13 
REMARK    3  A    between atoms: C_13  and  C_21 
REMARK    4  A    between atoms: C_21  and  C_24 
REMARK    5  A    between atoms: C_24  and  C_25 
REMARK    6  A    between atoms: C_25  and  C_26 
ROOT
ATOM      1  C   UNL d   1     134.489 124.728 149.237  0.00  0.00     0.000 C 
ATOM      2  C   UNL d   1     135.022 125.862 148.325  0.00  0.00     0.000 C 
ATOM      3  C   UNL d   1     136.051 125.357 147.312  0.00  0.00     0.005 C 
ATOM      4  C   UNL d   1     135.404 124.279 146.396  0.00  0.00     0.004 C 
ATOM      5  C   UNL d   1     133.617 125.539 150.249  0.00  0.00     0.000 C 
ATOM      6  C   UNL d   1     133.688 123.806 148.298  0.00  0.00     0.000 C 
ATOM      7  C   UNL d   1     136.473 123.650 145.414  0.00  0.00     0.015 C 
ATOM      8  C   UNL d   1     135.450 126.942 149.302  0.00  0.00     0.000 C 
ATOM      9  C   UNL d   1     134.567 123.225 147.177  0.00  0.00     0.000 C 
ATOM     10  C   UNL d   1     134.366 126.899 150.382  0.00  0.00     0.000 C 
ATOM     11  C   UNL d   1     136.629 126.499 146.463  0.00  0.00     0.025 C 
ATOM     12  C   UNL d   1     135.633 123.962 149.949  0.00  0.00     0.000 C 
ATOM     13  C   UNL d   1     137.382 124.741 144.830  0.00  0.00    -0.047 C 
ATOM     14  C   UNL d   1     135.715 122.954 144.246  0.00  0.00     0.006 C 
ATOM     15  C   UNL d   1     137.419 126.001 145.294  0.00  0.00    -0.035 C 
ATOM     16  C   UNL d   1     137.362 122.612 146.141  0.00  0.00     0.004 C 
ATOM     17  C   UNL d   1     138.260 124.336 143.662  0.00  0.00     0.051 C 
ATOM     18  C   UNL d   1     136.615 122.509 143.092  0.00  0.00     0.030 C 
ATOM     19  C   UNL d   1     137.451 123.667 142.553  0.00  0.00     0.115 C 
ENDROOT
BRANCH   5  20
ATOM     20  C   UNL d   1     133.274 124.930 151.652  0.00  0.00     0.000 C 
ATOM     21  C   UNL d   1     132.345 123.713 151.563  0.00  0.00     0.000 C 
BRANCH  20  22
ATOM     22  C   UNL d   1     132.654 126.034 152.556  0.00  0.00     0.000 C 
BRANCH  22  23
ATOM     23  C   UNL d   1     131.463 125.648 153.447  0.00  0.00     0.000 C 
BRANCH  23  24
ATOM     24  C   UNL d   1     130.109 126.263 153.075  0.00  0.00     0.000 C 
BRANCH  24  25
ATOM     25  C   UNL d   1     129.067 125.278 152.515  0.00  0.00     0.000 C 
ATOM     26  C   UNL d   1     128.810 124.112 153.475  0.00  0.00     0.000 C 
ATOM     27  C   UNL d   1     127.754 126.009 152.226  0.00  0.00     0.000 C 
ENDBRANCH  24  25
ENDBRANCH  23  24
ENDBRANCH  22  23
ENDBRANCH  20  22
ENDBRANCH   5  20
BRANCH  19  28
ATOM     28  O   UNL d   1     138.351 123.178 141.560  0.00  0.00    -0.385 OA
ATOM     29  H   UNL d   1     138.421 122.213 141.679  0.00  0.00     0.210 HD
ENDBRANCH  19  28
TORSDOF 6
ENDMDL
MODEL 4
REMARK VINA RESULT:    -9.187     15.799     19.678
REMARK INTER + INTRA:         -12.847
REMARK INTER:                 -12.084
REMARK INTRA:                  -0.763
REMARK UNBOUND:                -0.707
REMARK  6 active torsions:
REMARK  status: ('A' for Active; 'I' for Inactive)
REMARK    1  A    between atoms: O_1  and  C_22 
REMARK    2  A    between atoms: C_6  and  C_13 
REMARK    3  A    between atoms: C_13  and  C_21 
REMARK    4  A    between atoms: C_21  and  C_24 
REMARK    5  A    between atoms: C_24  and  C_25 
REMARK    6  A    between atoms: C_25  and  C_26 
ROOT
ATOM      1  C   UNL d   1     128.286 130.787 158.406  0.00  0.00     0.000 C 
ATOM      2  C   UNL d   1     127.805 131.956 159.303  0.00  0.00     0.000 C 
ATOM      3  C   UNL d   1     126.819 131.494 160.378  0.00  0.00     0.005 C 
ATOM      4  C   UNL d   1     127.498 130.441 161.299  0.00  0.00     0.004 C 
ATOM      5  C   UNL d   1     129.117 131.556 157.330  0.00  0.00     0.000 C 
ATOM      6  C   UNL d   1     129.122 129.889 159.338  0.00  0.00     0.000 C 
ATOM      7  C   UNL d   1     126.471 129.855 162.350  0.00  0.00     0.015 C 
ATOM      8  C   UNL d   1     127.341 133.007 158.312  0.00  0.00     0.000 C 
ATOM      9  C   UNL d   1     128.290 129.353 160.517  0.00  0.00     0.000 C 
ATOM     10  C   UNL d   1     128.374 132.918 157.186  0.00  0.00     0.000 C 
ATOM     11  C   UNL d   1     126.290 132.669 161.214  0.00  0.00     0.025 C 
ATOM     12  C   UNL d   1     127.105 130.009 157.773  0.00  0.00     0.000 C 
ATOM     13  C   UNL d   1     125.598 130.973 162.937  0.00  0.00    -0.047 C 
ATOM     14  C   UNL d   1     127.276 129.190 163.504  0.00  0.00     0.006 C 
ATOM     15  C   UNL d   1     125.550 132.217 162.434  0.00  0.00    -0.035 C 
ATOM     16  C   UNL d   1     125.541 128.802 161.698  0.00  0.00     0.004 C 
ATOM     17  C   UNL d   1     124.772 130.615 164.157  0.00  0.00     0.051 C 
ATOM     18  C   UNL d   1     126.426 128.792 164.712  0.00  0.00     0.030 C 
ATOM     19  C   UNL d   1     125.625 129.975 165.250  0.00  0.00     0.115 C 
ENDROOT
BRANCH   5  20
ATOM     20  C   UNL d   1     129.391 130.898 155.933  0.00  0.00     0.000 C 
ATOM     21  C   UNL d   1     130.586 129.938 155.951  0.00  0.00     0.000 C 
BRANCH  20  22
ATOM     22  C   UNL d   1     129.594 132.014 154.868  0.00  0.00     0.000 C 
BRANCH  22  23
ATOM     23  C   UNL d   1     128.559 132.126 153.739  0.00  0.00     0.000 C 
BRANCH  23  24
ATOM     24  C   UNL d   1     128.105 133.544 153.372  0.00  0.00     0.000 C 
BRANCH  24  25
ATOM     25  C   UNL d   1     128.585 134.058 152.003  0.00  0.00     0.000 C 
ATOM     26  C   UNL d   1     127.643 135.121 151.429  0.00  0.00     0.000 C 
ATOM     27  C   UNL d   1     129.999 134.631 152.122  0.00  0.00     0.000 C 
ENDBRANCH  24  25
ENDBRANCH  23  24
ENDBRANCH  22  23
ENDBRANCH  20  22
ENDBRANCH   5  20
BRANCH  19  28
ATOM     28  O   UNL d   1     124.768 129.527 166.299  0.00  0.00    -0.385 OA
ATOM     29  H   UNL d   1     124.332 128.711 165.992  0.00  0.00     0.210 HD
ENDBRANCH  19  28
TORSDOF 6
ENDMDL
MODEL 5
REMARK VINA RESULT:    -8.794     15.135     19.702
REMARK INTER + INTRA:         -12.329
REMARK INTER:                 -11.201
REMARK INTRA:                  -1.128
REMARK UNBOUND:                -0.707
REMARK  6 active torsions:
REMARK  status: ('A' for Active; 'I' for Inactive)
REMARK    1  A    between atoms: O_1  and  C_22 
REMARK    2  A    between atoms: C_6  and  C_13 
REMARK    3  A    between atoms: C_13  and  C_21 
REMARK    4  A    between atoms: C_21  and  C_24 
REMARK    5  A    between atoms: C_24  and  C_25 
REMARK    6  A    between atoms: C_25  and  C_26 
ROOT
ATOM      1  C   UNL d   1     128.313 130.469 158.620  0.00  0.00     0.000 C 
ATOM      2  C   UNL d   1     127.863 131.721 159.416  0.00  0.00     0.000 C 
ATOM      3  C   UNL d   1     126.849 131.381 160.509  0.00  0.00     0.005 C 
ATOM      4  C   UNL d   1     127.479 130.380 161.520  0.00  0.00     0.004 C 
ATOM      5  C   UNL d   1     129.185 131.121 157.500  0.00  0.00     0.000 C 
ATOM      6  C   UNL d   1     129.105 129.618 159.633  0.00  0.00     0.000 C 
ATOM      7  C   UNL d   1     126.418 129.915 162.598  0.00  0.00     0.015 C 
ATOM      8  C   UNL d   1     127.451 132.707 158.339  0.00  0.00     0.000 C 
ATOM      9  C   UNL d   1     128.240 129.207 160.837  0.00  0.00     0.000 C 
ATOM     10  C   UNL d   1     128.493 132.493 157.238  0.00  0.00     0.000 C 
ATOM     11  C   UNL d   1     126.353 132.635 161.242  0.00  0.00     0.025 C 
ATOM     12  C   UNL d   1     127.113 129.686 158.033  0.00  0.00     0.000 C 
ATOM     13  C   UNL d   1     125.579 131.105 163.082  0.00  0.00    -0.047 C 
ATOM     14  C   UNL d   1     127.184 129.315 163.813  0.00  0.00     0.006 C 
ATOM     15  C   UNL d   1     125.582 132.307 162.483  0.00  0.00    -0.035 C 
ATOM     16  C   UNL d   1     125.458 128.847 162.017  0.00  0.00     0.004 C 
ATOM     17  C   UNL d   1     124.725 130.874 164.314  0.00  0.00     0.051 C 
ATOM     18  C   UNL d   1     126.306 129.044 165.035  0.00  0.00     0.030 C 
ATOM     19  C   UNL d   1     125.542 130.293 165.467  0.00  0.00     0.115 C 
ENDROOT
BRANCH   5  20
ATOM     20  C   UNL d   1     129.451 130.346 156.163  0.00  0.00     0.000 C 
ATOM     21  C   UNL d   1     130.942 130.250 155.818  0.00  0.00     0.000 C 
BRANCH  20  22
ATOM     22  C   UNL d   1     128.658 131.022 155.007  0.00  0.00     0.000 C 
BRANCH  22  23
ATOM     23  C   UNL d   1     127.597 130.184 154.279  0.00  0.00     0.000 C 
BRANCH  23  24
ATOM     24  C   UNL d   1     127.862 128.676 154.196  0.00  0.00     0.000 C 
BRANCH  24  25
ATOM     25  C   UNL d   1     126.610 127.792 154.047  0.00  0.00     0.000 C 
ATOM     26  C   UNL d   1     126.932 126.454 153.375  0.00  0.00     0.000 C 
ATOM     27  C   UNL d   1     125.975 127.543 155.417  0.00  0.00     0.000 C 
ENDBRANCH  24  25
ENDBRANCH  23  24
ENDBRANCH  22  23
ENDBRANCH  20  22
ENDBRANCH   5  20
BRANCH  19  28
ATOM     28  O   UNL d   1     124.656 129.959 166.534  0.00  0.00    -0.385 OA
ATOM     29  H   UNL d   1     124.819 129.027 166.769  0.00  0.00     0.210 HD
ENDBRANCH  19  28
TORSDOF 6
ENDMDL
MODEL 6
REMARK VINA RESULT:    -8.737     26.058     29.978
REMARK INTER + INTRA:         -12.253
REMARK INTER:                 -10.623
REMARK INTRA:                  -1.630
REMARK UNBOUND:                -0.707
REMARK  6 active torsions:
REMARK  status: ('A' for Active; 'I' for Inactive)
REMARK    1  A    between atoms: O_1  and  C_22 
REMARK    2  A    between atoms: C_6  and  C_13 
REMARK    3  A    between atoms: C_13  and  C_21 
REMARK    4  A    between atoms: C_21  and  C_24 
REMARK    5  A    between atoms: C_24  and  C_25 
REMARK    6  A    between atoms: C_25  and  C_26 
ROOT
ATOM      1  C   UNL d   1     126.773 125.637 171.368  0.00  0.00     0.000 C 
ATOM      2  C   UNL d   1     128.255 125.924 171.014  0.00  0.00     0.000 C 
ATOM      3  C   UNL d   1     129.129 124.672 171.115  0.00  0.00     0.005 C 
ATOM      4  C   UNL d   1     128.610 123.586 170.129  0.00  0.00     0.004 C 
ATOM      5  C   UNL d   1     126.174 127.079 171.349  0.00  0.00     0.000 C 
ATOM      6  C   UNL d   1     126.266 124.719 170.238  0.00  0.00     0.000 C 
ATOM      7  C   UNL d   1     129.418 122.236 170.291  0.00  0.00     0.015 C 
ATOM      8  C   UNL d   1     128.611 127.116 171.883  0.00  0.00     0.000 C 
ATOM      9  C   UNL d   1     127.065 123.405 170.164  0.00  0.00     0.000 C 
ATOM     10  C   UNL d   1     127.347 127.978 171.845  0.00  0.00     0.000 C 
ATOM     11  C   UNL d   1     130.607 124.980 170.837  0.00  0.00     0.025 C 
ATOM     12  C   UNL d   1     126.621 124.969 172.757  0.00  0.00     0.000 C 
ATOM     13  C   UNL d   1     130.920 122.517 170.439  0.00  0.00    -0.047 C 
ATOM     14  C   UNL d   1     129.193 121.375 169.014  0.00  0.00     0.006 C 
ATOM     15  C   UNL d   1     131.427 123.741 170.656  0.00  0.00    -0.035 C 
ATOM     16  C   UNL d   1     128.945 121.445 171.535  0.00  0.00     0.004 C 
ATOM     17  C   UNL d   1     131.846 121.323 170.314  0.00  0.00     0.051 C 
ATOM     18  C   UNL d   1     130.102 120.148 168.919  0.00  0.00     0.030 C 
ATOM     19  C   UNL d   1     131.576 120.529 169.037  0.00  0.00     0.115 C 
ENDROOT
BRANCH   5  20
ATOM     20  C   UNL d   1     124.845 127.386 172.122  0.00  0.00     0.000 C 
ATOM     21  C   UNL d   1     123.601 126.846 171.407  0.00  0.00     0.000 C 
BRANCH  20  22
ATOM     22  C   UNL d   1     124.727 128.920 172.356  0.00  0.00     0.000 C 
BRANCH  22  23
ATOM     23  C   UNL d   1     124.774 129.432 173.804  0.00  0.00     0.000 C 
BRANCH  23  24
ATOM     24  C   UNL d   1     124.997 128.373 174.891  0.00  0.00     0.000 C 
BRANCH  24  25
ATOM     25  C   UNL d   1     126.328 128.482 175.655  0.00  0.00     0.000 C 
ATOM     26  C   UNL d   1     127.239 127.280 175.389  0.00  0.00     0.000 C 
ATOM     27  C   UNL d   1     127.052 129.775 175.270  0.00  0.00     0.000 C 
ENDBRANCH  24  25
ENDBRANCH  23  24
ENDBRANCH  22  23
ENDBRANCH  20  22
ENDBRANCH   5  20
BRANCH  19  28
ATOM     28  O   UNL d   1     132.370 119.344 169.056  0.00  0.00    -0.385 OA
ATOM     29  H   UNL d   1     133.281 119.607 169.282  0.00  0.00     0.210 HD
ENDBRANCH  19  28
TORSDOF 6
ENDMDL
MODEL 7
REMARK VINA RESULT:    -8.634      3.530      9.939
REMARK INTER + INTRA:         -12.118
REMARK INTER:                 -12.200
REMARK INTRA:                   0.083
REMARK UNBOUND:                -0.707
REMARK  6 active torsions:
REMARK  status: ('A' for Active; 'I' for Inactive)
REMARK    1  A    between atoms: O_1  and  C_22 
REMARK    2  A    between atoms: C_6  and  C_13 
REMARK    3  A    between atoms: C_13  and  C_21 
REMARK    4  A    between atoms: C_21  and  C_24 
REMARK    5  A    between atoms: C_24  and  C_25 
REMARK    6  A    between atoms: C_25  and  C_26 
ROOT
ATOM      1  C   UNL d   1     134.629 124.907 148.374  0.00  0.00     0.000 C 
ATOM      2  C   UNL d   1     135.059 125.728 147.131  0.00  0.00     0.000 C 
ATOM      3  C   UNL d   1     136.184 125.049 146.348  0.00  0.00     0.005 C 
ATOM      4  C   UNL d   1     135.713 123.651 145.852  0.00  0.00     0.004 C 
ATOM      5  C   UNL d   1     133.622 125.891 149.052  0.00  0.00     0.000 C 
ATOM      6  C   UNL d   1     133.988 123.627 147.804  0.00  0.00     0.000 C 
ATOM      7  C   UNL d   1     136.892 122.872 145.140  0.00  0.00     0.015 C 
ATOM      8  C   UNL d   1     135.309 127.119 147.683  0.00  0.00     0.000 C 
ATOM      9  C   UNL d   1     134.979 122.822 146.945  0.00  0.00     0.000 C 
ATOM     10  C   UNL d   1     134.194 127.301 148.715  0.00  0.00     0.000 C 
ATOM     11  C   UNL d   1     136.654 125.903 145.162  0.00  0.00     0.025 C 
ATOM     12  C   UNL d   1     135.826 124.580 149.302  0.00  0.00     0.000 C 
ATOM     13  C   UNL d   1     137.686 123.812 144.221  0.00  0.00    -0.047 C 
ATOM     14  C   UNL d   1     136.275 121.732 144.278  0.00  0.00     0.006 C 
ATOM     15  C   UNL d   1     137.548 125.148 144.230  0.00  0.00    -0.035 C 
ATOM     16  C   UNL d   1     137.869 122.264 146.176  0.00  0.00     0.004 C 
ATOM     17  C   UNL d   1     138.656 123.154 143.258  0.00  0.00     0.051 C 
ATOM     18  C   UNL d   1     137.272 121.046 143.342  0.00  0.00     0.030 C 
ATOM     19  C   UNL d   1     137.983 122.053 142.442  0.00  0.00     0.115 C 
ENDROOT
BRANCH   5  20
ATOM     20  C   UNL d   1     133.296 125.750 150.579  0.00  0.00     0.000 C 
ATOM     21  C   UNL d   1     134.274 126.526 151.470  0.00  0.00     0.000 C 
BRANCH  20  22
ATOM     22  C   UNL d   1     133.272 124.243 150.965  0.00  0.00     0.000 C 
BRANCH  22  23
ATOM     23  C   UNL d   1     132.152 123.760 151.899  0.00  0.00     0.000 C 
BRANCH  23  24
ATOM     24  C   UNL d   1     132.431 122.471 152.683  0.00  0.00     0.000 C 
BRANCH  24  25
ATOM     25  C   UNL d   1     131.659 122.323 154.007  0.00  0.00     0.000 C 
ATOM     26  C   UNL d   1     132.111 123.350 155.049  0.00  0.00     0.000 C 
ATOM     27  C   UNL d   1     130.156 122.465 153.758  0.00  0.00     0.000 C 
ENDBRANCH  24  25
ENDBRANCH  23  24
ENDBRANCH  22  23
ENDBRANCH  20  22
ENDBRANCH   5  20
BRANCH  19  28
ATOM     28  O   UNL d   1     138.977 121.379 141.673  0.00  0.00    -0.385 OA
ATOM     29  H   UNL d   1     139.724 121.182 142.268  0.00  0.00     0.210 HD
ENDBRANCH  19  28
TORSDOF 6
ENDMDL
MODEL 8
REMARK VINA RESULT:    -8.154     26.242     29.949
REMARK INTER + INTRA:         -11.482
REMARK INTER:                  -9.794
REMARK INTRA:                  -1.688
REMARK UNBOUND:                -0.707
REMARK  6 active torsions:
REMARK  status: ('A' for Active; 'I' for Inactive)
REMARK    1  A    between atoms: O_1  and  C_22 
REMARK    2  A    between atoms: C_6  and  C_13 
REMARK    3  A    between atoms: C_13  and  C_21 
REMARK    4  A    between atoms: C_21  and  C_24 
REMARK    5  A    between atoms: C_24  and  C_25 
REMARK    6  A    between atoms: C_25  and  C_26 
ROOT
ATOM      1  C   UNL d   1     128.416 126.292 172.416  0.00  0.00     0.000 C 
ATOM      2  C   UNL d   1     128.090 124.849 172.881  0.00  0.00     0.000 C 
ATOM      3  C   UNL d   1     128.544 123.797 171.869  0.00  0.00     0.005 C 
ATOM      4  C   UNL d   1     130.084 123.891 171.664  0.00  0.00     0.004 C 
ATOM      5  C   UNL d   1     127.709 127.134 173.526  0.00  0.00     0.000 C 
ATOM      6  C   UNL d   1     129.955 126.376 172.432  0.00  0.00     0.000 C 
ATOM      7  C   UNL d   1     130.571 122.895 170.535  0.00  0.00     0.015 C 
ATOM      8  C   UNL d   1     126.617 124.908 173.240  0.00  0.00     0.000 C 
ATOM      9  C   UNL d   1     130.596 125.349 171.484  0.00  0.00     0.000 C 
ATOM     10  C   UNL d   1     126.465 126.276 173.910  0.00  0.00     0.000 C 
ATOM     11  C   UNL d   1     128.151 122.377 172.301  0.00  0.00     0.025 C 
ATOM     12  C   UNL d   1     127.843 126.598 171.010  0.00  0.00     0.000 C 
ATOM     13  C   UNL d   1     129.873 121.535 170.674  0.00  0.00    -0.047 C 
ATOM     14  C   UNL d   1     132.106 122.689 170.693  0.00  0.00     0.006 C 
ATOM     15  C   UNL d   1     128.819 121.321 171.478  0.00  0.00    -0.035 C 
ATOM     16  C   UNL d   1     130.270 123.456 169.124  0.00  0.00     0.004 C 
ATOM     17  C   UNL d   1     130.444 120.396 169.851  0.00  0.00     0.051 C 
ATOM     18  C   UNL d   1     132.679 121.567 169.826  0.00  0.00     0.030 C 
ATOM     19  C   UNL d   1     131.949 120.246 170.060  0.00  0.00     0.115 C 
ENDROOT
BRANCH   5  20
ATOM     20  C   UNL d   1     127.316 128.626 173.248  0.00  0.00     0.000 C 
ATOM     21  C   UNL d   1     128.336 129.624 173.809  0.00  0.00     0.000 C 
BRANCH  20  22
ATOM     22  C   UNL d   1     125.897 128.902 173.823  0.00  0.00     0.000 C 
BRANCH  22  23
ATOM     23  C   UNL d   1     124.788 129.303 172.839  0.00  0.00     0.000 C 
BRANCH  23  24
ATOM     24  C   UNL d   1     124.871 128.687 171.436  0.00  0.00     0.000 C 
BRANCH  24  25
ATOM     25  C   UNL d   1     123.766 127.671 171.095  0.00  0.00     0.000 C 
ATOM     26  C   UNL d   1     124.284 126.545 170.195  0.00  0.00     0.000 C 
ATOM     27  C   UNL d   1     123.180 127.080 172.379  0.00  0.00     0.000 C 
ENDBRANCH  24  25
ENDBRANCH  23  24
ENDBRANCH  22  23
ENDBRANCH  20  22
ENDBRANCH   5  20
BRANCH  19  28
ATOM     28  O   UNL d   1     132.444 119.266 169.150  0.00  0.00    -0.385 OA
ATOM     29  H   UNL d   1     133.189 119.666 168.665  0.00  0.00     0.210 HD
ENDBRANCH  19  28
TORSDOF 6
ENDMDL
MODEL 9
REMARK VINA RESULT:    -8.066      9.278     13.495
REMARK INTER + INTRA:         -11.366
REMARK INTER:                 -10.805
REMARK INTRA:                  -0.562
REMARK UNBOUND:                -0.707
REMARK  6 active torsions:
REMARK  status: ('A' for Active; 'I' for Inactive)
REMARK    1  A    between atoms: O_1  and  C_22 
REMARK    2  A    between atoms: C_6  and  C_13 
REMARK    3  A    between atoms: C_13  and  C_21 
REMARK    4  A    between atoms: C_21  and  C_24 
REMARK    5  A    between atoms: C_24  and  C_25 
REMARK    6  A    between atoms: C_25  and  C_26 
ROOT
ATOM      1  C   UNL d   1     132.197 120.903 154.980  0.00  0.00     0.000 C 
ATOM      2  C   UNL d   1     131.239 119.687 154.914  0.00  0.00     0.000 C 
ATOM      3  C   UNL d   1     131.943 118.373 155.259  0.00  0.00     0.005 C 
ATOM      4  C   UNL d   1     132.515 118.446 156.704  0.00  0.00     0.004 C 
ATOM      5  C   UNL d   1     131.279 122.041 154.431  0.00  0.00     0.000 C 
ATOM      6  C   UNL d   1     132.563 121.040 156.471  0.00  0.00     0.000 C 
ATOM      7  C   UNL d   1     133.352 117.149 157.052  0.00  0.00     0.015 C 
ATOM      8  C   UNL d   1     130.588 119.812 153.549  0.00  0.00     0.000 C 
ATOM      9  C   UNL d   1     133.259 119.778 157.010  0.00  0.00     0.000 C 
ATOM     10  C   UNL d   1     130.368 121.318 153.393  0.00  0.00     0.000 C 
ATOM     11  C   UNL d   1     131.006 117.165 155.119  0.00  0.00     0.025 C 
ATOM     12  C   UNL d   1     133.457 120.705 154.100  0.00  0.00     0.000 C 
ATOM     13  C   UNL d   1     132.634 115.889 156.548  0.00  0.00    -0.047 C 
ATOM     14  C   UNL d   1     133.494 117.058 158.600  0.00  0.00     0.006 C 
ATOM     15  C   UNL d   1     131.583 115.919 155.712  0.00  0.00    -0.035 C 
ATOM     16  C   UNL d   1     134.759 117.199 156.408  0.00  0.00     0.004 C 
ATOM     17  C   UNL d   1     133.163 114.561 157.055  0.00  0.00     0.051 C 
ATOM     18  C   UNL d   1     134.070 115.731 159.098  0.00  0.00     0.030 C 
ATOM     19  C   UNL d   1     133.270 114.540 158.578  0.00  0.00     0.115 C 
ENDROOT
BRANCH   5  20
ATOM     20  C   UNL d   1     131.916 123.342 153.832  0.00  0.00     0.000 C 
ATOM     21  C   UNL d   1     131.138 124.611 154.201  0.00  0.00     0.000 C 
BRANCH  20  22
ATOM     22  C   UNL d   1     132.034 123.196 152.287  0.00  0.00     0.000 C 
BRANCH  22  23
ATOM     23  C   UNL d   1     132.769 124.301 151.515  0.00  0.00     0.000 C 
BRANCH  23  24
ATOM     24  C   UNL d   1     133.616 123.847 150.320  0.00  0.00     0.000 C 
BRANCH  24  25
ATOM     25  C   UNL d   1     135.065 124.364 150.303  0.00  0.00     0.000 C 
ATOM     26  C   UNL d   1     135.935 123.594 149.304  0.00  0.00     0.000 C 
ATOM     27  C   UNL d   1     135.087 125.857 149.964  0.00  0.00     0.000 C 
ENDBRANCH  24  25
ENDBRANCH  23  24
ENDBRANCH  22  23
ENDBRANCH  20  22
ENDBRANCH   5  20
BRANCH  19  28
ATOM     28  O   UNL d   1     133.912 113.330 158.977  0.00  0.00    -0.385 OA
ATOM     29  H   UNL d   1     133.248 112.617 158.928  0.00  0.00     0.210 HD
ENDBRANCH  19  28
TORSDOF 6
ENDMDL
MODEL 10
REMARK VINA RESULT:    -8.050     55.463     58.175
REMARK INTER + INTRA:         -11.346
REMARK INTER:                 -10.001
REMARK INTRA:                  -1.345
REMARK UNBOUND:                -0.707
REMARK  6 active torsions:
REMARK  status: ('A' for Active; 'I' for Inactive)
REMARK    1  A    between atoms: O_1  and  C_22 
REMARK    2  A    between atoms: C_6  and  C_13 
REMARK    3  A    between atoms: C_13  and  C_21 
REMARK    4  A    between atoms: C_21  and  C_24 
REMARK    5  A    between atoms: C_24  and  C_25 
REMARK    6  A    between atoms: C_25  and  C_26 
ROOT
ATOM      1  C   UNL d   1     125.811 141.270 198.792  0.00  0.00     0.000 C 
ATOM      2  C   UNL d   1     125.066 141.143 197.439  0.00  0.00     0.000 C 
ATOM      3  C   UNL d   1     124.562 139.721 197.185  0.00  0.00     0.005 C 
ATOM      4  C   UNL d   1     123.572 139.305 198.310  0.00  0.00     0.004 C 
ATOM      5  C   UNL d   1     126.345 142.736 198.706  0.00  0.00     0.000 C 
ATOM      6  C   UNL d   1     124.727 141.046 199.865  0.00  0.00     0.000 C 
ATOM      7  C   UNL d   1     123.121 137.797 198.144  0.00  0.00     0.015 C 
ATOM      8  C   UNL d   1     126.030 141.749 196.436  0.00  0.00     0.000 C 
ATOM      9  C   UNL d   1     124.074 139.659 199.740  0.00  0.00     0.000 C 
ATOM     10  C   UNL d   1     126.625 142.943 197.187  0.00  0.00     0.000 C 
ATOM     11  C   UNL d   1     123.892 139.586 195.811  0.00  0.00     0.025 C 
ATOM     12  C   UNL d   1     126.965 140.245 198.925  0.00  0.00     0.000 C 
ATOM     13  C   UNL d   1     122.825 137.478 196.672  0.00  0.00    -0.047 C 
ATOM     14  C   UNL d   1     121.823 137.579 198.974  0.00  0.00     0.006 C 
ATOM     15  C   UNL d   1     123.153 138.294 195.657  0.00  0.00    -0.035 C 
ATOM     16  C   UNL d   1     124.219 136.825 198.642  0.00  0.00     0.004 C 
ATOM     17  C   UNL d   1     122.111 136.169 196.394  0.00  0.00     0.051 C 
ATOM     18  C   UNL d   1     121.134 136.237 198.720  0.00  0.00     0.030 C 
ATOM     19  C   UNL d   1     120.845 136.026 197.236  0.00  0.00     0.115 C 
ENDROOT
BRANCH   5  20
ATOM     20  C   UNL d   1     127.567 143.178 199.583  0.00  0.00     0.000 C 
ATOM     21  C   UNL d   1     127.194 144.230 200.635  0.00  0.00     0.000 C 
BRANCH  20  22
ATOM     22  C   UNL d   1     128.704 143.700 198.658  0.00  0.00     0.000 C 
BRANCH  22  23
ATOM     23  C   UNL d   1     130.059 142.977 198.708  0.00  0.00     0.000 C 
BRANCH  23  24
ATOM     24  C   UNL d   1     130.206 141.885 199.775  0.00  0.00     0.000 C 
BRANCH  24  25
ATOM     25  C   UNL d   1     131.215 142.189 200.897  0.00  0.00     0.000 C 
ATOM     26  C   UNL d   1     132.380 143.049 200.399  0.00  0.00     0.000 C 
ATOM     27  C   UNL d   1     130.513 142.893 202.060  0.00  0.00     0.000 C 
ENDBRANCH  24  25
ENDBRANCH  23  24
ENDBRANCH  22  23
ENDBRANCH  20  22
ENDBRANCH   5  20
BRANCH  19  28
ATOM     28  O   UNL d   1     120.309 134.718 197.040  0.00  0.00    -0.385 OA
ATOM     29  H   UNL d   1     119.389 134.729 197.360  0.00  0.00     0.210 HD
ENDBRANCH  19  28
TORSDOF 6
ENDMDL
MODEL 11
REMARK VINA RESULT:    -8.050     55.914     59.085
REMARK INTER + INTRA:         -11.345
REMARK INTER:                  -9.917
REMARK INTRA:                  -1.428
REMARK UNBOUND:                -0.707
REMARK  6 active torsions:
REMARK  status: ('A' for Active; 'I' for Inactive)
REMARK    1  A    between atoms: O_1  and  C_22 
REMARK    2  A    between atoms: C_6  and  C_13 
REMARK    3  A    between atoms: C_13  and  C_21 
REMARK    4  A    between atoms: C_21  and  C_24 
REMARK    5  A    between atoms: C_24  and  C_25 
REMARK    6  A    between atoms: C_25  and  C_26 
ROOT
ATOM      1  C   UNL d   1     127.916 142.315 198.062  0.00  0.00     0.000 C 
ATOM      2  C   UNL d   1     127.822 142.894 199.497  0.00  0.00     0.000 C 
ATOM      3  C   UNL d   1     129.065 142.582 200.331  0.00  0.00     0.005 C 
ATOM      4  C   UNL d   1     130.323 143.199 199.654  0.00  0.00     0.004 C 
ATOM      5  C   UNL d   1     126.486 142.627 197.516  0.00  0.00     0.000 C 
ATOM      6  C   UNL d   1     129.047 143.112 197.385  0.00  0.00     0.000 C 
ATOM      7  C   UNL d   1     131.643 142.796 200.428  0.00  0.00     0.015 C 
ATOM      8  C   UNL d   1     126.479 142.398 200.001  0.00  0.00     0.000 C 
ATOM      9  C   UNL d   1     130.388 142.944 198.120  0.00  0.00     0.000 C 
ATOM     10  C   UNL d   1     125.572 142.509 198.774  0.00  0.00     0.000 C 
ATOM     11  C   UNL d   1     128.933 143.095 201.772  0.00  0.00     0.025 C 
ATOM     12  C   UNL d   1     128.212 140.794 198.063  0.00  0.00     0.000 C 
ATOM     13  C   UNL d   1     131.433 142.894 201.945  0.00  0.00    -0.047 C 
ATOM     14  C   UNL d   1     132.774 143.782 200.014  0.00  0.00     0.006 C 
ATOM     15  C   UNL d   1     130.229 143.050 202.519  0.00  0.00    -0.035 C 
ATOM     16  C   UNL d   1     132.072 141.347 200.088  0.00  0.00     0.004 C 
ATOM     17  C   UNL d   1     132.680 142.820 202.806  0.00  0.00     0.051 C 
ATOM     18  C   UNL d   1     134.044 143.669 200.859  0.00  0.00     0.030 C 
ATOM     19  C   UNL d   1     133.743 143.817 202.348  0.00  0.00     0.115 C 
ENDROOT
BRANCH   5  20
ATOM     20  C   UNL d   1     125.912 141.809 196.308  0.00  0.00     0.000 C 
ATOM     21  C   UNL d   1     125.546 142.695 195.111  0.00  0.00     0.000 C 
BRANCH  20  22
ATOM     22  C   UNL d   1     124.681 140.983 196.782  0.00  0.00     0.000 C 
BRANCH  22  23
ATOM     23  C   UNL d   1     124.723 139.459 196.591  0.00  0.00     0.000 C 
BRANCH  23  24
ATOM     24  C   UNL d   1     124.272 138.613 197.788  0.00  0.00     0.000 C 
BRANCH  24  25
ATOM     25  C   UNL d   1     123.891 139.405 199.051  0.00  0.00     0.000 C 
ATOM     26  C   UNL d   1     122.388 139.331 199.339  0.00  0.00     0.000 C 
ATOM     27  C   UNL d   1     124.675 138.883 200.257  0.00  0.00     0.000 C 
ENDBRANCH  24  25
ENDBRANCH  23  24
ENDBRANCH  22  23
ENDBRANCH  20  22
ENDBRANCH   5  20
BRANCH  19  28
ATOM     28  O   UNL d   1     134.936 143.592 203.096  0.00  0.00    -0.385 OA
ATOM     29  H   UNL d   1     135.207 144.446 203.480  0.00  0.00     0.210 HD
ENDBRANCH  19  28
TORSDOF 6
ENDMDL
MODEL 12
REMARK VINA RESULT:    -7.959     26.591     30.140
REMARK INTER + INTRA:         -11.225
REMARK INTER:                  -9.648
REMARK INTRA:                  -1.577
REMARK UNBOUND:                -0.707
REMARK  6 active torsions:
REMARK  status: ('A' for Active; 'I' for Inactive)
REMARK    1  A    between atoms: O_1  and  C_22 
REMARK    2  A    between atoms: C_6  and  C_13 
REMARK    3  A    between atoms: C_13  and  C_21 
REMARK    4  A    between atoms: C_21  and  C_24 
REMARK    5  A    between atoms: C_24  and  C_25 
REMARK    6  A    between atoms: C_25  and  C_26 
ROOT
ATOM      1  C   UNL d   1     127.880 124.624 172.173  0.00  0.00     0.000 C 
ATOM      2  C   UNL d   1     127.911 123.340 173.041  0.00  0.00     0.000 C 
ATOM      3  C   UNL d   1     128.183 122.084 172.211  0.00  0.00     0.005 C 
ATOM      4  C   UNL d   1     129.562 122.209 171.502  0.00  0.00     0.004 C 
ATOM      5  C   UNL d   1     127.427 125.687 173.224  0.00  0.00     0.000 C 
ATOM      6  C   UNL d   1     129.325 124.798 171.668  0.00  0.00     0.000 C 
ATOM      7  C   UNL d   1     129.822 120.980 170.540  0.00  0.00     0.015 C 
ATOM      8  C   UNL d   1     126.620 123.407 173.835  0.00  0.00     0.000 C 
ATOM      9  C   UNL d   1     129.790 123.594 170.830  0.00  0.00     0.000 C 
ATOM     10  C   UNL d   1     126.487 124.892 174.180  0.00  0.00     0.000 C 
ATOM     11  C   UNL d   1     128.138 120.810 173.066  0.00  0.00     0.025 C 
ATOM     12  C   UNL d   1     126.876 124.512 170.998  0.00  0.00     0.000 C 
ATOM     13  C   UNL d   1     129.394 119.667 171.211  0.00  0.00    -0.047 C 
ATOM     14  C   UNL d   1     131.347 120.911 170.235  0.00  0.00     0.006 C 
ATOM     15  C   UNL d   1     128.669 119.613 172.340  0.00  0.00    -0.035 C 
ATOM     16  C   UNL d   1     129.038 121.128 169.214  0.00  0.00     0.004 C 
ATOM     17  C   UNL d   1     129.845 118.385 170.537  0.00  0.00     0.051 C 
ATOM     18  C   UNL d   1     131.785 119.634 169.515  0.00  0.00     0.030 C 
ATOM     19  C   UNL d   1     131.349 118.383 170.274  0.00  0.00     0.115 C 
ENDROOT
BRANCH   5  20
ATOM     20  C   UNL d   1     126.766 127.027 172.749  0.00  0.00     0.000 C 
ATOM     21  C   UNL d   1     127.795 128.076 172.311  0.00  0.00     0.000 C 
BRANCH  20  22
ATOM     22  C   UNL d   1     125.856 127.584 173.882  0.00  0.00     0.000 C 
BRANCH  22  23
ATOM     23  C   UNL d   1     124.342 127.628 173.630  0.00  0.00     0.000 C 
BRANCH  23  24
ATOM     24  C   UNL d   1     123.901 127.929 172.192  0.00  0.00     0.000 C 
BRANCH  24  25
ATOM     25  C   UNL d   1     123.293 126.741 171.426  0.00  0.00     0.000 C 
ATOM     26  C   UNL d   1     123.985 126.516 170.078  0.00  0.00     0.000 C 
ATOM     27  C   UNL d   1     123.381 125.468 172.271  0.00  0.00     0.000 C 
ENDBRANCH  24  25
ENDBRANCH  23  24
ENDBRANCH  22  23
ENDBRANCH  20  22
ENDBRANCH   5  20
BRANCH  19  28
ATOM     28  O   UNL d   1     131.680 117.227 169.508  0.00  0.00    -0.385 OA
ATOM     29  H   UNL d   1     130.852 116.882 169.127  0.00  0.00     0.210 HD
ENDBRANCH  19  28
TORSDOF 6
ENDMDL
MODEL 13
REMARK VINA RESULT:    -7.814     51.177     55.644
REMARK INTER + INTRA:         -11.034
REMARK INTER:                  -9.400
REMARK INTRA:                  -1.634
REMARK UNBOUND:                -0.707
REMARK  6 active torsions:
REMARK  status: ('A' for Active; 'I' for Inactive)
REMARK    1  A    between atoms: O_1  and  C_22 
REMARK    2  A    between atoms: C_6  and  C_13 
REMARK    3  A    between atoms: C_13  and  C_21 
REMARK    4  A    between atoms: C_21  and  C_24 
REMARK    5  A    between atoms: C_24  and  C_25 
REMARK    6  A    between atoms: C_25  and  C_26 
ROOT
ATOM      1  C   UNL d   1     105.891 146.444 185.005  0.00  0.00     0.000 C 
ATOM      2  C   UNL d   1     106.622 147.804 184.869  0.00  0.00     0.000 C 
ATOM      3  C   UNL d   1     107.652 147.798 183.738  0.00  0.00     0.005 C 
ATOM      4  C   UNL d   1     106.946 147.503 182.383  0.00  0.00     0.004 C 
ATOM      5  C   UNL d   1     105.054 146.680 186.303  0.00  0.00     0.000 C 
ATOM      6  C   UNL d   1     105.053 146.313 183.718  0.00  0.00     0.000 C 
ATOM      7  C   UNL d   1     107.998 147.373 181.208  0.00  0.00     0.015 C 
ATOM      8  C   UNL d   1     107.107 148.097 186.276  0.00  0.00     0.000 C 
ATOM      9  C   UNL d   1     105.933 146.324 182.456  0.00  0.00     0.000 C 
ATOM     10  C   UNL d   1     105.952 147.622 187.160  0.00  0.00     0.000 C 
ATOM     11  C   UNL d   1     108.424 149.122 183.658  0.00  0.00     0.025 C 
ATOM     12  C   UNL d   1     106.878 145.260 185.165  0.00  0.00     0.000 C 
ATOM     13  C   UNL d   1     109.073 148.463 181.319  0.00  0.00    -0.047 C 
ATOM     14  C   UNL d   1     107.246 147.547 179.856  0.00  0.00     0.006 C 
ATOM     15  C   UNL d   1     109.229 149.242 182.402  0.00  0.00    -0.035 C 
ATOM     16  C   UNL d   1     108.699 145.992 181.233  0.00  0.00     0.004 C 
ATOM     17  C   UNL d   1     109.976 148.647 180.115  0.00  0.00     0.051 C 
ATOM     18  C   UNL d   1     108.166 147.687 178.642  0.00  0.00     0.030 C 
ATOM     19  C   UNL d   1     109.174 148.818 178.827  0.00  0.00     0.115 C 
ENDROOT
BRANCH   5  20
ATOM     20  C   UNL d   1     104.539 145.457 187.138  0.00  0.00     0.000 C 
ATOM     21  C   UNL d   1     103.044 145.549 187.469  0.00  0.00     0.000 C 
BRANCH  20  22
ATOM     22  C   UNL d   1     105.386 145.325 188.436  0.00  0.00     0.000 C 
BRANCH  22  23
ATOM     23  C   UNL d   1     106.166 144.020 188.655  0.00  0.00     0.000 C 
BRANCH  23  24
ATOM     24  C   UNL d   1     107.591 144.164 189.203  0.00  0.00     0.000 C 
BRANCH  24  25
ATOM     25  C   UNL d   1     108.280 145.508 188.908  0.00  0.00     0.000 C 
ATOM     26  C   UNL d   1     108.857 146.145 190.175  0.00  0.00     0.000 C 
ATOM     27  C   UNL d   1     109.392 145.313 187.874  0.00  0.00     0.000 C 
ENDBRANCH  24  25
ENDBRANCH  23  24
ENDBRANCH  22  23
ENDBRANCH  20  22
ENDBRANCH   5  20
BRANCH  19  28
ATOM     28  O   UNL d   1     110.076 148.833 177.722  0.00  0.00    -0.385 OA
ATOM     29  H   UNL d   1     109.934 149.667 177.240  0.00  0.00     0.210 HD
ENDBRANCH  19  28
TORSDOF 6
ENDMDL
MODEL 14
REMARK VINA RESULT:    -7.763     57.071     59.276
REMARK INTER + INTRA:         -10.965
REMARK INTER:                  -9.860
REMARK INTRA:                  -1.105
REMARK UNBOUND:                -0.707
REMARK  6 active torsions:
REMARK  status: ('A' for Active; 'I' for Inactive)
REMARK    1  A    between atoms: O_1  and  C_22 
REMARK    2  A    between atoms: C_6  and  C_13 
REMARK    3  A    between atoms: C_13  and  C_21 
REMARK    4  A    between atoms: C_21  and  C_24 
REMARK    5  A    between atoms: C_24  and  C_25 
REMARK    6  A    between atoms: C_25  and  C_26 
ROOT
ATOM      1  C   UNL d   1     125.861 139.275 199.713  0.00  0.00     0.000 C 
ATOM      2  C   UNL d   1     126.479 139.857 198.416  0.00  0.00     0.000 C 
ATOM      3  C   UNL d   1     127.451 141.002 198.699  0.00  0.00     0.005 C 
ATOM      4  C   UNL d   1     128.620 140.493 199.592  0.00  0.00     0.004 C 
ATOM      5  C   UNL d   1     124.815 138.274 199.127  0.00  0.00     0.000 C 
ATOM      6  C   UNL d   1     127.039 138.610 200.451  0.00  0.00     0.000 C 
ATOM      7  C   UNL d   1     129.583 141.680 200.002  0.00  0.00     0.015 C 
ATOM      8  C   UNL d   1     125.275 140.141 197.537  0.00  0.00     0.000 C 
ATOM      9  C   UNL d   1     128.148 139.620 200.790  0.00  0.00     0.000 C 
ATOM     10  C   UNL d   1     124.346 138.955 197.806  0.00  0.00     0.000 C 
ATOM     11  C   UNL d   1     128.001 141.622 197.406  0.00  0.00     0.025 C 
ATOM     12  C   UNL d   1     125.188 140.367 200.583  0.00  0.00     0.000 C 
ATOM     13  C   UNL d   1     129.847 142.603 198.804  0.00  0.00    -0.047 C 
ATOM     14  C   UNL d   1     130.936 141.072 200.473  0.00  0.00     0.006 C 
ATOM     15  C   UNL d   1     129.152 142.545 197.656  0.00  0.00    -0.035 C 
ATOM     16  C   UNL d   1     128.973 142.528 201.146  0.00  0.00     0.004 C 
ATOM     17  C   UNL d   1     130.969 143.611 198.962  0.00  0.00     0.051 C 
ATOM     18  C   UNL d   1     132.049 142.102 200.672  0.00  0.00     0.030 C 
ATOM     19  C   UNL d   1     132.266 142.946 199.418  0.00  0.00     0.115 C 
ENDROOT
BRANCH   5  20
ATOM     20  C   UNL d   1     123.597 137.811 200.000  0.00  0.00     0.000 C 
ATOM     21  C   UNL d   1     123.832 136.456 200.678  0.00  0.00     0.000 C 
BRANCH  20  22
ATOM     22  C   UNL d   1     122.315 137.775 199.120  0.00  0.00     0.000 C 
BRANCH  22  23
ATOM     23  C   UNL d   1     120.955 137.876 199.828  0.00  0.00     0.000 C 
BRANCH  23  24
ATOM     24  C   UNL d   1     120.932 138.661 201.146  0.00  0.00     0.000 C 
BRANCH  24  25
ATOM     25  C   UNL d   1     120.199 140.013 201.096  0.00  0.00     0.000 C 
ATOM     26  C   UNL d   1     121.023 141.084 200.375  0.00  0.00     0.000 C 
ATOM     27  C   UNL d   1     118.843 139.851 200.405  0.00  0.00     0.000 C 
ENDBRANCH  24  25
ENDBRANCH  23  24
ENDBRANCH  22  23
ENDBRANCH  20  22
ENDBRANCH   5  20
BRANCH  19  28
ATOM     28  O   UNL d   1     133.230 143.960 199.692  0.00  0.00    -0.385 OA
ATOM     29  H   UNL d   1     134.087 143.518 199.835  0.00  0.00     0.210 HD
ENDBRANCH  19  28
TORSDOF 6
ENDMDL
MODEL 15
REMARK VINA RESULT:    -7.760     52.039     56.980
REMARK INTER + INTRA:         -10.962
REMARK INTER:                  -9.450
REMARK INTRA:                  -1.512
REMARK UNBOUND:                -0.707
REMARK  6 active torsions:
REMARK  status: ('A' for Active; 'I' for Inactive)
REMARK    1  A    between atoms: O_1  and  C_22 
REMARK    2  A    between atoms: C_6  and  C_13 
REMARK    3  A    between atoms: C_13  and  C_21 
REMARK    4  A    between atoms: C_21  and  C_24 
REMARK    5  A    between atoms: C_24  and  C_25 
REMARK    6  A    between atoms: C_25  and  C_26 
ROOT
ATOM      1  C   UNL d   1     125.691 140.880 197.287  0.00  0.00     0.000 C 
ATOM      2  C   UNL d   1     124.823 139.760 197.914  0.00  0.00     0.000 C 
ATOM      3  C   UNL d   1     124.210 138.839 196.857  0.00  0.00     0.005 C 
ATOM      4  C   UNL d   1     125.340 138.157 196.034  0.00  0.00     0.004 C 
ATOM      5  C   UNL d   1     126.033 141.738 198.546  0.00  0.00     0.000 C 
ATOM      6  C   UNL d   1     126.896 140.148 196.664  0.00  0.00     0.000 C 
ATOM      7  C   UNL d   1     124.741 137.289 194.854  0.00  0.00     0.015 C 
ATOM      8  C   UNL d   1     123.884 140.506 198.844  0.00  0.00     0.000 C 
ATOM      9  C   UNL d   1     126.461 139.139 195.587  0.00  0.00     0.000 C 
ATOM     10  C   UNL d   1     124.771 141.597 199.449  0.00  0.00     0.000 C 
ATOM     11  C   UNL d   1     123.293 137.779 197.482  0.00  0.00     0.025 C 
ATOM     12  C   UNL d   1     124.913 141.700 196.227  0.00  0.00     0.000 C 
ATOM     13  C   UNL d   1     123.519 136.492 195.334  0.00  0.00    -0.047 C 
ATOM     14  C   UNL d   1     125.834 136.289 194.377  0.00  0.00     0.006 C 
ATOM     15  C   UNL d   1     122.908 136.708 196.510  0.00  0.00    -0.035 C 
ATOM     16  C   UNL d   1     124.305 138.181 193.666  0.00  0.00     0.004 C 
ATOM     17  C   UNL d   1     123.016 135.402 194.406  0.00  0.00     0.051 C 
ATOM     18  C   UNL d   1     125.326 135.221 193.407  0.00  0.00     0.030 C 
ATOM     19  C   UNL d   1     124.138 134.456 193.984  0.00  0.00     0.115 C 
ENDROOT
BRANCH   5  20
ATOM     20  C   UNL d   1     126.459 143.238 198.382  0.00  0.00     0.000 C 
ATOM     21  C   UNL d   1     127.879 143.396 197.824  0.00  0.00     0.000 C 
BRANCH  20  22
ATOM     22  C   UNL d   1     126.318 143.968 199.749  0.00  0.00     0.000 C 
BRANCH  22  23
ATOM     23  C   UNL d   1     127.540 143.995 200.678  0.00  0.00     0.000 C 
BRANCH  23  24
ATOM     24  C   UNL d   1     127.612 142.890 201.739  0.00  0.00     0.000 C 
BRANCH  24  25
ATOM     25  C   UNL d   1     128.819 141.941 201.625  0.00  0.00     0.000 C 
ATOM     26  C   UNL d   1     128.425 140.584 201.034  0.00  0.00     0.000 C 
ATOM     27  C   UNL d   1     129.912 142.582 200.765  0.00  0.00     0.000 C 
ENDBRANCH  24  25
ENDBRANCH  23  24
ENDBRANCH  22  23
ENDBRANCH  20  22
ENDBRANCH   5  20
BRANCH  19  28
ATOM     28  O   UNL d   1     123.633 133.555 193.000  0.00  0.00    -0.385 OA
ATOM     29  H   UNL d   1     124.399 133.178 192.529  0.00  0.00     0.210 HD
ENDBRANCH  19  28
TORSDOF 6
ENDMDL
