MODEL 1
REMARK VINA RESULT:   -11.499      0.000      0.000
REMARK INTER + INTRA:         -16.056
REMARK INTER:                 -15.196
REMARK INTRA:                  -0.860
REMARK UNBOUND:                -0.860
REMARK  6 active torsions:
REMARK  status: ('A' for Active; 'I' for Inactive)
REMARK    1  A    between atoms: O_1  and  C_22 
REMARK    2  A    between atoms: C_6  and  C_13 
REMARK    3  A    between atoms: C_13  and  C_21 
REMARK    4  A    between atoms: C_21  and  C_24 
REMARK    5  A    between atoms: C_24  and  C_25 
REMARK    6  A    between atoms: C_25  and  C_26 
ROOT
ATOM      1  C   UNL d   1     137.166 122.884 144.120  0.00  0.00     0.000 C 
ATOM      2  C   UNL d   1     137.722 124.298 144.431  0.00  0.00     0.000 C 
ATOM      3  C   UNL d   1     136.832 125.068 145.408  0.00  0.00     0.005 C 
ATOM      4  C   UNL d   1     136.732 124.293 146.754  0.00  0.00     0.004 C 
ATOM      5  C   UNL d   1     138.151 122.412 143.003  0.00  0.00     0.000 C 
ATOM      6  C   UNL d   1     137.286 122.109 145.447  0.00  0.00     0.000 C 
ATOM      7  C   UNL d   1     135.725 125.003 147.747  0.00  0.00     0.015 C 
ATOM      8  C   UNL d   1     137.968 124.900 143.061  0.00  0.00     0.000 C 
ATOM      9  C   UNL d   1     136.472 122.770 146.573  0.00  0.00     0.000 C 
ATOM     10  C   UNL d   1     138.513 123.725 142.245  0.00  0.00     0.000 C 
ATOM     11  C   UNL d   1     137.349 126.493 145.653  0.00  0.00     0.025 C 
ATOM     12  C   UNL d   1     135.702 122.927 143.616  0.00  0.00     0.000 C 
ATOM     13  C   UNL d   1     135.922 126.525 147.724  0.00  0.00    -0.047 C 
ATOM     14  C   UNL d   1     136.009 124.483 149.186  0.00  0.00     0.006 C 
ATOM     15  C   UNL d   1     136.664 127.162 146.803  0.00  0.00    -0.035 C 
ATOM     16  C   UNL d   1     134.255 124.696 147.370  0.00  0.00     0.004 C 
ATOM     17  C   UNL d   1     135.237 127.312 148.825  0.00  0.00     0.051 C 
ATOM     18  C   UNL d   1     135.279 125.255 150.286  0.00  0.00     0.030 C 
ATOM     19  C   UNL d   1     135.565 126.753 150.207  0.00  0.00     0.115 C 
ENDROOT
BRANCH   5  20
ATOM     20  C   UNL d   1     137.725 121.274 142.012  0.00  0.00     0.000 C 
ATOM     21  C   UNL d   1     138.071 119.873 142.532  0.00  0.00     0.000 C 
BRANCH  20  22
ATOM     22  C   UNL d   1     138.381 121.526 140.624  0.00  0.00     0.000 C 
BRANCH  22  23
ATOM     23  C   UNL d   1     139.483 120.559 140.164  0.00  0.00     0.000 C 
BRANCH  23  24
ATOM     24  C   UNL d   1     140.332 121.016 138.971  0.00  0.00     0.000 C 
BRANCH  24  25
ATOM     25  C   UNL d   1     141.758 121.483 139.316  0.00  0.00     0.000 C 
ATOM     26  C   UNL d   1     142.448 122.142 138.118  0.00  0.00     0.000 C 
ATOM     27  C   UNL d   1     141.721 122.459 140.494  0.00  0.00     0.000 C 
ENDBRANCH  24  25
ENDBRANCH  23  24
ENDBRANCH  22  23
ENDBRANCH  20  22
ENDBRANCH   5  20
BRANCH  19  28
ATOM     28  O   UNL d   1     134.775 127.437 151.178  0.00  0.00    -0.385 OA
ATOM     29  H   UNL d   1     133.895 127.585 150.787  0.00  0.00     0.210 HD
ENDBRANCH  19  28
TORSDOF 6
ENDMDL
MODEL 2
REMARK VINA RESULT:    -9.790      3.173      9.418
REMARK INTER + INTRA:         -13.797
REMARK INTER:                 -12.999
REMARK INTRA:                  -0.798
REMARK UNBOUND:                -0.860
REMARK  6 active torsions:
REMARK  status: ('A' for Active; 'I' for Inactive)
REMARK    1  A    between atoms: O_1  and  C_22 
REMARK    2  A    between atoms: C_6  and  C_13 
REMARK    3  A    between atoms: C_13  and  C_21 
REMARK    4  A    between atoms: C_21  and  C_24 
REMARK    5  A    between atoms: C_24  and  C_25 
REMARK    6  A    between atoms: C_25  and  C_26 
ROOT
ATOM      1  C   UNL d   1     136.298 125.159 146.605  0.00  0.00     0.000 C 
ATOM      2  C   UNL d   1     137.044 123.800 146.614  0.00  0.00     0.000 C 
ATOM      3  C   UNL d   1     136.997 123.104 145.253  0.00  0.00     0.005 C 
ATOM      4  C   UNL d   1     137.670 124.004 144.177  0.00  0.00     0.004 C 
ATOM      5  C   UNL d   1     136.359 125.546 148.117  0.00  0.00     0.000 C 
ATOM      6  C   UNL d   1     137.133 126.064 145.678  0.00  0.00     0.000 C 
ATOM      7  C   UNL d   1     137.535 123.368 142.735  0.00  0.00     0.015 C 
ATOM      8  C   UNL d   1     136.457 123.072 147.809  0.00  0.00     0.000 C 
ATOM      9  C   UNL d   1     137.228 125.495 144.252  0.00  0.00     0.000 C 
ATOM     10  C   UNL d   1     136.295 124.176 148.857  0.00  0.00     0.000 C 
ATOM     11  C   UNL d   1     137.673 121.726 145.289  0.00  0.00     0.025 C 
ATOM     12  C   UNL d   1     134.838 125.024 146.105  0.00  0.00     0.000 C 
ATOM     13  C   UNL d   1     137.804 121.857 142.781  0.00  0.00    -0.047 C 
ATOM     14  C   UNL d   1     138.590 124.035 141.804  0.00  0.00     0.006 C 
ATOM     15  C   UNL d   1     137.884 121.153 143.923  0.00  0.00    -0.035 C 
ATOM     16  C   UNL d   1     136.118 123.593 142.152  0.00  0.00     0.004 C 
ATOM     17  C   UNL d   1     137.995 121.163 141.447  0.00  0.00     0.051 C 
ATOM     18  C   UNL d   1     138.744 123.354 140.443  0.00  0.00     0.030 C 
ATOM     19  C   UNL d   1     139.046 121.865 140.590  0.00  0.00     0.115 C 
ENDROOT
BRANCH   5  20
ATOM     20  C   UNL d   1     135.328 126.569 148.707  0.00  0.00     0.000 C 
ATOM     21  C   UNL d   1     135.808 128.022 148.609  0.00  0.00     0.000 C 
BRANCH  20  22
ATOM     22  C   UNL d   1     135.011 126.190 150.183  0.00  0.00     0.000 C 
BRANCH  22  23
ATOM     23  C   UNL d   1     133.578 125.751 150.519  0.00  0.00     0.000 C 
BRANCH  23  24
ATOM     24  C   UNL d   1     133.413 124.323 151.054  0.00  0.00     0.000 C 
BRANCH  24  25
ATOM     25  C   UNL d   1     132.166 124.083 151.923  0.00  0.00     0.000 C 
ATOM     26  C   UNL d   1     132.246 122.756 152.684  0.00  0.00     0.000 C 
ATOM     27  C   UNL d   1     131.985 125.236 152.913  0.00  0.00     0.000 C 
ENDBRANCH  24  25
ENDBRANCH  23  24
ENDBRANCH  22  23
ENDBRANCH  20  22
ENDBRANCH   5  20
BRANCH  19  28
ATOM     28  O   UNL d   1     139.068 121.257 139.300  0.00  0.00    -0.385 OA
ATOM     29  H   UNL d   1     139.540 121.863 138.699  0.00  0.00     0.210 HD
ENDBRANCH  19  28
TORSDOF 6
ENDMDL
MODEL 3
REMARK VINA RESULT:    -9.727      3.136      8.399
REMARK INTER + INTRA:         -13.715
REMARK INTER:                 -13.184
REMARK INTRA:                  -0.531
REMARK UNBOUND:                -0.860
REMARK  6 active torsions:
REMARK  status: ('A' for Active; 'I' for Inactive)
REMARK    1  A    between atoms: O_1  and  C_22 
REMARK    2  A    between atoms: C_6  and  C_13 
REMARK    3  A    between atoms: C_13  and  C_21 
REMARK    4  A    between atoms: C_21  and  C_24 
REMARK    5  A    between atoms: C_24  and  C_25 
REMARK    6  A    between atoms: C_25  and  C_26 
ROOT
ATOM      1  C   UNL d   1     135.841 123.770 146.717  0.00  0.00     0.000 C 
ATOM      2  C   UNL d   1     134.944 123.974 145.469  0.00  0.00     0.000 C 
ATOM      3  C   UNL d   1     135.761 124.232 144.202  0.00  0.00     0.005 C 
ATOM      4  C   UNL d   1     136.694 123.019 143.921  0.00  0.00     0.004 C 
ATOM      5  C   UNL d   1     134.769 123.702 147.851  0.00  0.00     0.000 C 
ATOM      6  C   UNL d   1     136.584 122.445 146.459  0.00  0.00     0.000 C 
ATOM      7  C   UNL d   1     137.639 123.301 142.684  0.00  0.00     0.015 C 
ATOM      8  C   UNL d   1     133.950 125.034 145.906  0.00  0.00     0.000 C 
ATOM      9  C   UNL d   1     137.444 122.508 145.185  0.00  0.00     0.000 C 
ATOM     10  C   UNL d   1     133.642 124.660 147.358  0.00  0.00     0.000 C 
ATOM     11  C   UNL d   1     134.865 124.507 142.987  0.00  0.00     0.025 C 
ATOM     12  C   UNL d   1     136.828 124.946 146.928  0.00  0.00     0.000 C 
ATOM     13  C   UNL d   1     136.860 123.980 141.549  0.00  0.00    -0.047 C 
ATOM     14  C   UNL d   1     138.191 121.940 142.168  0.00  0.00     0.006 C 
ATOM     15  C   UNL d   1     135.625 124.486 141.697  0.00  0.00    -0.035 C 
ATOM     16  C   UNL d   1     138.822 124.219 143.080  0.00  0.00     0.004 C 
ATOM     17  C   UNL d   1     137.552 124.051 140.201  0.00  0.00     0.051 C 
ATOM     18  C   UNL d   1     138.926 122.030 140.830  0.00  0.00     0.030 C 
ATOM     19  C   UNL d   1     138.061 122.682 139.755  0.00  0.00     0.115 C 
ENDROOT
BRANCH   5  20
ATOM     20  C   UNL d   1     135.176 124.007 149.334  0.00  0.00     0.000 C 
ATOM     21  C   UNL d   1     133.970 124.089 150.278  0.00  0.00     0.000 C 
BRANCH  20  22
ATOM     22  C   UNL d   1     136.006 125.322 149.382  0.00  0.00     0.000 C 
BRANCH  22  23
ATOM     23  C   UNL d   1     135.460 126.485 150.224  0.00  0.00     0.000 C 
BRANCH  23  24
ATOM     24  C   UNL d   1     135.094 127.763 149.459  0.00  0.00     0.000 C 
BRANCH  24  25
ATOM     25  C   UNL d   1     135.800 127.946 148.103  0.00  0.00     0.000 C 
ATOM     26  C   UNL d   1     134.844 128.472 147.028  0.00  0.00     0.000 C 
ATOM     27  C   UNL d   1     136.986 128.902 148.252  0.00  0.00     0.000 C 
ENDBRANCH  24  25
ENDBRANCH  23  24
ENDBRANCH  22  23
ENDBRANCH  20  22
ENDBRANCH   5  20
BRANCH  19  28
ATOM     28  O   UNL d   1     138.829 122.844 138.564  0.00  0.00    -0.385 OA
ATOM     29  H   UNL d   1     139.766 122.903 138.826  0.00  0.00     0.210 HD
ENDBRANCH  19  28
TORSDOF 6
ENDMDL
MODEL 4
REMARK VINA RESULT:    -9.683      3.396      8.721
REMARK INTER + INTRA:         -13.656
REMARK INTER:                 -12.282
REMARK INTRA:                  -1.374
REMARK UNBOUND:                -0.860
REMARK  6 active torsions:
REMARK  status: ('A' for Active; 'I' for Inactive)
REMARK    1  A    between atoms: O_1  and  C_22 
REMARK    2  A    between atoms: C_6  and  C_13 
REMARK    3  A    between atoms: C_13  and  C_21 
REMARK    4  A    between atoms: C_21  and  C_24 
REMARK    5  A    between atoms: C_24  and  C_25 
REMARK    6  A    between atoms: C_25  and  C_26 
ROOT
ATOM      1  C   UNL d   1     136.044 123.302 144.674  0.00  0.00     0.000 C 
ATOM      2  C   UNL d   1     135.634 123.697 143.232  0.00  0.00     0.000 C 
ATOM      3  C   UNL d   1     136.806 123.613 142.253  0.00  0.00     0.005 C 
ATOM      4  C   UNL d   1     137.352 122.157 142.207  0.00  0.00     0.004 C 
ATOM      5  C   UNL d   1     134.737 123.637 145.462  0.00  0.00     0.000 C 
ATOM      6  C   UNL d   1     136.376 121.800 144.596  0.00  0.00     0.000 C 
ATOM      7  C   UNL d   1     138.639 122.059 141.293  0.00  0.00     0.015 C 
ATOM      8  C   UNL d   1     134.942 125.036 143.406  0.00  0.00     0.000 C 
ATOM      9  C   UNL d   1     137.527 121.517 143.615  0.00  0.00     0.000 C 
ATOM     10  C   UNL d   1     134.146 124.863 144.702  0.00  0.00     0.000 C 
ATOM     11  C   UNL d   1     136.411 124.077 140.844  0.00  0.00     0.025 C 
ATOM     12  C   UNL d   1     137.251 124.127 145.188  0.00  0.00     0.000 C 
ATOM     13  C   UNL d   1     138.454 122.875 140.006  0.00  0.00    -0.047 C 
ATOM     14  C   UNL d   1     138.857 120.566 140.911  0.00  0.00     0.006 C 
ATOM     15  C   UNL d   1     137.448 123.745 139.818  0.00  0.00    -0.035 C 
ATOM     16  C   UNL d   1     139.893 122.590 142.030  0.00  0.00     0.004 C 
ATOM     17  C   UNL d   1     139.476 122.647 138.908  0.00  0.00     0.051 C 
ATOM     18  C   UNL d   1     139.921 120.343 139.835  0.00  0.00     0.030 C 
ATOM     19  C   UNL d   1     139.633 121.164 138.581  0.00  0.00     0.115 C 
ENDROOT
BRANCH   5  20
ATOM     20  C   UNL d   1     134.795 123.890 147.008  0.00  0.00     0.000 C 
ATOM     21  C   UNL d   1     135.234 122.651 147.798  0.00  0.00     0.000 C 
BRANCH  20  22
ATOM     22  C   UNL d   1     133.409 124.398 147.500  0.00  0.00     0.000 C 
BRANCH  22  23
ATOM     23  C   UNL d   1     133.368 125.709 148.300  0.00  0.00     0.000 C 
BRANCH  23  24
ATOM     24  C   UNL d   1     133.987 126.937 147.623  0.00  0.00     0.000 C 
BRANCH  24  25
ATOM     25  C   UNL d   1     135.343 127.393 148.193  0.00  0.00     0.000 C 
ATOM     26  C   UNL d   1     135.705 126.640 149.477  0.00  0.00     0.000 C 
ATOM     27  C   UNL d   1     136.446 127.197 147.150  0.00  0.00     0.000 C 
ENDBRANCH  24  25
ENDBRANCH  23  24
ENDBRANCH  22  23
ENDBRANCH  20  22
ENDBRANCH   5  20
BRANCH  19  28
ATOM     28  O   UNL d   1     140.709 121.009 137.657  0.00  0.00    -0.385 OA
ATOM     29  H   UNL d   1     141.157 121.871 137.583  0.00  0.00     0.210 HD
ENDBRANCH  19  28
TORSDOF 6
ENDMDL
MODEL 5
REMARK VINA RESULT:    -9.520      3.550      9.974
REMARK INTER + INTRA:         -13.441
REMARK INTER:                 -12.417
REMARK INTRA:                  -1.023
REMARK UNBOUND:                -0.860
REMARK  6 active torsions:
REMARK  status: ('A' for Active; 'I' for Inactive)
REMARK    1  A    between atoms: O_1  and  C_22 
REMARK    2  A    between atoms: C_6  and  C_13 
REMARK    3  A    between atoms: C_13  and  C_21 
REMARK    4  A    between atoms: C_21  and  C_24 
REMARK    5  A    between atoms: C_24  and  C_25 
REMARK    6  A    between atoms: C_25  and  C_26 
ROOT
ATOM      1  C   UNL d   1     134.830 124.345 148.765  0.00  0.00     0.000 C 
ATOM      2  C   UNL d   1     135.213 125.409 147.705  0.00  0.00     0.000 C 
ATOM      3  C   UNL d   1     136.316 124.921 146.765  0.00  0.00     0.005 C 
ATOM      4  C   UNL d   1     135.838 123.649 146.006  0.00  0.00     0.004 C 
ATOM      5  C   UNL d   1     133.840 125.154 149.661  0.00  0.00     0.000 C 
ATOM      6  C   UNL d   1     134.178 123.202 147.962  0.00  0.00     0.000 C 
ATOM      7  C   UNL d   1     136.998 123.049 145.112  0.00  0.00     0.015 C 
ATOM      8  C   UNL d   1     135.473 126.660 148.524  0.00  0.00     0.000 C 
ATOM      9  C   UNL d   1     135.145 122.603 146.926  0.00  0.00     0.000 C 
ATOM     10  C   UNL d   1     134.391 126.611 149.606  0.00  0.00     0.000 C 
ATOM     11  C   UNL d   1     136.742 126.007 145.767  0.00  0.00     0.025 C 
ATOM     12  C   UNL d   1     136.058 123.848 149.568  0.00  0.00     0.000 C 
ATOM     13  C   UNL d   1     137.755 124.168 144.383  0.00  0.00    -0.047 C 
ATOM     14  C   UNL d   1     136.360 122.103 144.053  0.00  0.00     0.006 C 
ATOM     15  C   UNL d   1     137.610 125.471 144.671  0.00  0.00    -0.035 C 
ATOM     16  C   UNL d   1     138.012 122.253 145.969  0.00  0.00     0.004 C 
ATOM     17  C   UNL d   1     138.697 123.736 143.275  0.00  0.00     0.051 C 
ATOM     18  C   UNL d   1     137.329 121.637 142.966  0.00  0.00     0.030 C 
ATOM     19  C   UNL d   1     138.004 122.817 142.271  0.00  0.00     0.115 C 
ENDROOT
BRANCH   5  20
ATOM     20  C   UNL d   1     133.565 124.698 151.136  0.00  0.00     0.000 C 
ATOM     21  C   UNL d   1     132.638 123.479 151.219  0.00  0.00     0.000 C 
BRANCH  20  22
ATOM     22  C   UNL d   1     132.981 125.893 151.945  0.00  0.00     0.000 C 
BRANCH  22  23
ATOM     23  C   UNL d   1     131.565 125.745 152.522  0.00  0.00     0.000 C 
BRANCH  23  24
ATOM     24  C   UNL d   1     131.463 125.610 154.046  0.00  0.00     0.000 C 
BRANCH  24  25
ATOM     25  C   UNL d   1     130.778 124.328 154.551  0.00  0.00     0.000 C 
ATOM     26  C   UNL d   1     129.764 123.786 153.539  0.00  0.00     0.000 C 
ATOM     27  C   UNL d   1     131.827 123.256 154.857  0.00  0.00     0.000 C 
ENDBRANCH  24  25
ENDBRANCH  23  24
ENDBRANCH  22  23
ENDBRANCH  20  22
ENDBRANCH   5  20
BRANCH  19  28
ATOM     28  O   UNL d   1     138.977 122.329 141.349  0.00  0.00    -0.385 OA
ATOM     29  H   UNL d   1     138.922 122.879 140.546  0.00  0.00     0.210 HD
ENDBRANCH  19  28
TORSDOF 6
ENDMDL
MODEL 6
REMARK VINA RESULT:    -9.262     15.017     19.364
REMARK INTER + INTRA:         -13.099
REMARK INTER:                 -12.451
REMARK INTRA:                  -0.648
REMARK UNBOUND:                -0.860
REMARK  6 active torsions:
REMARK  status: ('A' for Active; 'I' for Inactive)
REMARK    1  A    between atoms: O_1  and  C_22 
REMARK    2  A    between atoms: C_6  and  C_13 
REMARK    3  A    between atoms: C_13  and  C_21 
REMARK    4  A    between atoms: C_21  and  C_24 
REMARK    5  A    between atoms: C_24  and  C_25 
REMARK    6  A    between atoms: C_25  and  C_26 
ROOT
ATOM      1  C   UNL d   1     127.986 131.372 158.204  0.00  0.00     0.000 C 
ATOM      2  C   UNL d   1     127.620 132.339 159.358  0.00  0.00     0.000 C 
ATOM      3  C   UNL d   1     126.712 131.683 160.400  0.00  0.00     0.005 C 
ATOM      4  C   UNL d   1     127.429 130.452 161.024  0.00  0.00     0.004 C 
ATOM      5  C   UNL d   1     128.751 132.331 157.237  0.00  0.00     0.000 C 
ATOM      6  C   UNL d   1     128.865 130.288 158.857  0.00  0.00     0.000 C 
ATOM      7  C   UNL d   1     126.473 129.679 162.020  0.00  0.00     0.015 C 
ATOM      8  C   UNL d   1     127.112 133.578 158.646  0.00  0.00     0.000 C 
ATOM      9  C   UNL d   1     128.117 129.535 159.971  0.00  0.00     0.000 C 
ATOM     10  C   UNL d   1     128.044 133.706 157.438  0.00  0.00     0.000 C 
ATOM     11  C   UNL d   1     126.294 132.669 161.500  0.00  0.00     0.025 C 
ATOM     12  C   UNL d   1     126.731 130.759 157.532  0.00  0.00     0.000 C 
ATOM     13  C   UNL d   1     125.690 130.667 162.897  0.00  0.00    -0.047 C 
ATOM     14  C   UNL d   1     127.348 128.779 162.941  0.00  0.00     0.006 C 
ATOM     15  C   UNL d   1     125.643 131.989 162.663  0.00  0.00    -0.035 C 
ATOM     16  C   UNL d   1     125.457 128.797 161.253  0.00  0.00     0.004 C 
ATOM     17  C   UNL d   1     124.956 130.080 164.087  0.00  0.00     0.051 C 
ATOM     18  C   UNL d   1     126.589 128.156 164.113  0.00  0.00     0.030 C 
ATOM     19  C   UNL d   1     125.875 129.216 164.948  0.00  0.00     0.115 C 
ENDROOT
BRANCH   5  20
ATOM     20  C   UNL d   1     128.885 131.969 155.718  0.00  0.00     0.000 C 
ATOM     21  C   UNL d   1     130.238 131.334 155.374  0.00  0.00     0.000 C 
BRANCH  20  22
ATOM     22  C   UNL d   1     128.640 133.244 154.860  0.00  0.00     0.000 C 
BRANCH  22  23
ATOM     23  C   UNL d   1     128.566 133.080 153.334  0.00  0.00     0.000 C 
BRANCH  23  24
ATOM     24  C   UNL d   1     127.915 134.231 152.557  0.00  0.00     0.000 C 
BRANCH  24  25
ATOM     25  C   UNL d   1     128.677 134.695 151.303  0.00  0.00     0.000 C 
ATOM     26  C   UNL d   1     129.166 133.513 150.461  0.00  0.00     0.000 C 
ATOM     27  C   UNL d   1     127.785 135.602 150.451  0.00  0.00     0.000 C 
ENDBRANCH  24  25
ENDBRANCH  23  24
ENDBRANCH  22  23
ENDBRANCH  20  22
ENDBRANCH   5  20
BRANCH  19  28
ATOM     28  O   UNL d   1     125.093 128.576 165.955  0.00  0.00    -0.385 OA
ATOM     29  H   UNL d   1     124.312 128.190 165.518  0.00  0.00     0.210 HD
ENDBRANCH  19  28
TORSDOF 6
ENDMDL
MODEL 7
REMARK VINA RESULT:    -8.945      3.583      9.714
REMARK INTER + INTRA:         -12.681
REMARK INTER:                 -12.004
REMARK INTRA:                  -0.676
REMARK UNBOUND:                -0.860
REMARK  6 active torsions:
REMARK  status: ('A' for Active; 'I' for Inactive)
REMARK    1  A    between atoms: O_1  and  C_22 
REMARK    2  A    between atoms: C_6  and  C_13 
REMARK    3  A    between atoms: C_13  and  C_21 
REMARK    4  A    between atoms: C_21  and  C_24 
REMARK    5  A    between atoms: C_24  and  C_25 
REMARK    6  A    between atoms: C_25  and  C_26 
ROOT
ATOM      1  C   UNL d   1     135.137 124.607 147.400  0.00  0.00     0.000 C 
ATOM      2  C   UNL d   1     136.478 123.862 147.174  0.00  0.00     0.000 C 
ATOM      3  C   UNL d   1     136.578 123.261 145.771  0.00  0.00     0.005 C 
ATOM      4  C   UNL d   1     136.479 124.389 144.705  0.00  0.00     0.004 C 
ATOM      5  C   UNL d   1     135.238 124.955 148.919  0.00  0.00     0.000 C 
ATOM      6  C   UNL d   1     135.196 125.826 146.458  0.00  0.00     0.000 C 
ATOM      7  C   UNL d   1     136.461 123.790 143.240  0.00  0.00     0.015 C 
ATOM      8  C   UNL d   1     136.577 122.925 148.363  0.00  0.00     0.000 C 
ATOM      9  C   UNL d   1     135.335 125.407 144.985  0.00  0.00     0.000 C 
ATOM     10  C   UNL d   1     136.034 123.760 149.525  0.00  0.00     0.000 C 
ATOM     11  C   UNL d   1     137.875 122.462 145.580  0.00  0.00     0.025 C 
ATOM     12  C   UNL d   1     133.910 123.711 147.095  0.00  0.00     0.000 C 
ATOM     13  C   UNL d   1     137.492 122.661 143.103  0.00  0.00    -0.047 C 
ATOM     14  C   UNL d   1     136.827 124.927 142.242  0.00  0.00     0.006 C 
ATOM     15  C   UNL d   1     138.123 122.104 144.149  0.00  0.00    -0.035 C 
ATOM     16  C   UNL d   1     135.065 123.222 142.883  0.00  0.00     0.004 C 
ATOM     17  C   UNL d   1     137.793 122.189 141.694  0.00  0.00     0.051 C 
ATOM     18  C   UNL d   1     137.086 124.445 140.813  0.00  0.00     0.030 C 
ATOM     19  C   UNL d   1     138.151 123.353 140.772  0.00  0.00     0.115 C 
ENDROOT
BRANCH   5  20
ATOM     20  C   UNL d   1     133.938 125.258 149.742  0.00  0.00     0.000 C 
ATOM     21  C   UNL d   1     133.944 126.656 150.371  0.00  0.00     0.000 C 
BRANCH  20  22
ATOM     22  C   UNL d   1     133.750 124.162 150.831  0.00  0.00     0.000 C 
BRANCH  22  23
ATOM     23  C   UNL d   1     132.394 124.090 151.550  0.00  0.00     0.000 C 
BRANCH  23  24
ATOM     24  C   UNL d   1     132.371 123.328 152.881  0.00  0.00     0.000 C 
BRANCH  24  25
ATOM     25  C   UNL d   1     131.062 122.579 153.190  0.00  0.00     0.000 C 
ATOM     26  C   UNL d   1     131.170 121.085 152.870  0.00  0.00     0.000 C 
ATOM     27  C   UNL d   1     130.684 122.767 154.662  0.00  0.00     0.000 C 
ENDBRANCH  24  25
ENDBRANCH  23  24
ENDBRANCH  22  23
ENDBRANCH  20  22
ENDBRANCH   5  20
BRANCH  19  28
ATOM     28  O   UNL d   1     138.273 122.861 139.438  0.00  0.00    -0.385 OA
ATOM     29  H   UNL d   1     139.139 122.421 139.367  0.00  0.00     0.210 HD
ENDBRANCH  19  28
TORSDOF 6
ENDMDL
MODEL 8
REMARK VINA RESULT:    -8.682     15.117     19.340
REMARK INTER + INTRA:         -12.333
REMARK INTER:                 -10.855
REMARK INTRA:                  -1.478
REMARK UNBOUND:                -0.860
REMARK  6 active torsions:
REMARK  status: ('A' for Active; 'I' for Inactive)
REMARK    1  A    between atoms: O_1  and  C_22 
REMARK    2  A    between atoms: C_6  and  C_13 
REMARK    3  A    between atoms: C_13  and  C_21 
REMARK    4  A    between atoms: C_21  and  C_24 
REMARK    5  A    between atoms: C_24  and  C_25 
REMARK    6  A    between atoms: C_25  and  C_26 
ROOT
ATOM      1  C   UNL d   1     128.305 130.404 158.616  0.00  0.00     0.000 C 
ATOM      2  C   UNL d   1     127.838 131.654 159.405  0.00  0.00     0.000 C 
ATOM      3  C   UNL d   1     126.859 131.301 160.526  0.00  0.00     0.005 C 
ATOM      4  C   UNL d   1     127.540 130.333 161.535  0.00  0.00     0.004 C 
ATOM      5  C   UNL d   1     129.132 131.064 157.467  0.00  0.00     0.000 C 
ATOM      6  C   UNL d   1     129.143 129.590 159.621  0.00  0.00     0.000 C 
ATOM      7  C   UNL d   1     126.518 129.853 162.644  0.00  0.00     0.015 C 
ATOM      8  C   UNL d   1     127.373 132.612 158.325  0.00  0.00     0.000 C 
ATOM      9  C   UNL d   1     128.318 129.172 160.851  0.00  0.00     0.000 C 
ATOM     10  C   UNL d   1     128.395 132.412 157.203  0.00  0.00     0.000 C 
ATOM     11  C   UNL d   1     126.344 132.551 161.254  0.00  0.00     0.025 C 
ATOM     12  C   UNL d   1     127.114 129.579 158.067  0.00  0.00     0.000 C 
ATOM     13  C   UNL d   1     125.657 131.027 163.132  0.00  0.00    -0.047 C 
ATOM     14  C   UNL d   1     127.329 129.293 163.849  0.00  0.00     0.006 C 
ATOM     15  C   UNL d   1     125.612 132.220 162.516  0.00  0.00    -0.035 C 
ATOM     16  C   UNL d   1     125.576 128.751 162.100  0.00  0.00     0.004 C 
ATOM     17  C   UNL d   1     124.838 130.789 164.386  0.00  0.00     0.051 C 
ATOM     18  C   UNL d   1     126.487 129.015 165.095  0.00  0.00     0.030 C 
ATOM     19  C   UNL d   1     125.697 130.248 165.527  0.00  0.00     0.115 C 
ENDROOT
BRANCH   5  20
ATOM     20  C   UNL d   1     129.390 130.278 156.135  0.00  0.00     0.000 C 
ATOM     21  C   UNL d   1     130.854 130.334 155.685  0.00  0.00     0.000 C 
BRANCH  20  22
ATOM     22  C   UNL d   1     128.448 130.824 155.023  0.00  0.00     0.000 C 
BRANCH  22  23
ATOM     23  C   UNL d   1     127.427 129.855 154.407  0.00  0.00     0.000 C 
BRANCH  23  24
ATOM     24  C   UNL d   1     127.976 128.505 153.927  0.00  0.00     0.000 C 
BRANCH  24  25
ATOM     25  C   UNL d   1     127.425 127.270 154.661  0.00  0.00     0.000 C 
ATOM     26  C   UNL d   1     128.349 126.822 155.798  0.00  0.00     0.000 C 
ATOM     27  C   UNL d   1     126.029 127.565 155.215  0.00  0.00     0.000 C 
ENDBRANCH  24  25
ENDBRANCH  23  24
ENDBRANCH  22  23
ENDBRANCH  20  22
ENDBRANCH   5  20
BRANCH  19  28
ATOM     28  O   UNL d   1     124.846 129.905 166.620  0.00  0.00    -0.385 OA
ATOM     29  H   UNL d   1     124.745 128.935 166.619  0.00  0.00     0.210 HD
ENDBRANCH  19  28
TORSDOF 6
ENDMDL
