MODEL 1
REMARK VINA RESULT:    -9.332      0.000      0.000
REMARK INTER + INTRA:         -13.070
REMARK INTER:                 -12.333
REMARK INTRA:                  -0.737
REMARK UNBOUND:                -0.737
REMARK  6 active torsions:
REMARK  status: ('A' for Active; 'I' for Inactive)
REMARK    1  A    between atoms: O_1  and  C_22 
REMARK    2  A    between atoms: C_6  and  C_13 
REMARK    3  A    between atoms: C_13  and  C_21 
REMARK    4  A    between atoms: C_21  and  C_24 
REMARK    5  A    between atoms: C_24  and  C_25 
REMARK    6  A    between atoms: C_25  and  C_26 
ROOT
ATOM      1  C   UNL d   1     128.020 131.395 158.187  0.00  0.00     0.000 C 
ATOM      2  C   UNL d   1     127.627 132.342 159.349  0.00  0.00     0.000 C 
ATOM      3  C   UNL d   1     126.728 131.656 160.379  0.00  0.00     0.005 C 
ATOM      4  C   UNL d   1     127.469 130.435 160.995  0.00  0.00     0.004 C 
ATOM      5  C   UNL d   1     128.768 132.380 157.234  0.00  0.00     0.000 C 
ATOM      6  C   UNL d   1     128.919 130.324 158.834  0.00  0.00     0.000 C 
ATOM      7  C   UNL d   1     126.525 129.631 161.978  0.00  0.00     0.015 C 
ATOM      8  C   UNL d   1     127.096 133.577 158.646  0.00  0.00     0.000 C 
ATOM      9  C   UNL d   1     128.182 129.544 159.936  0.00  0.00     0.000 C 
ATOM     10  C   UNL d   1     128.031 133.737 157.445  0.00  0.00     0.000 C 
ATOM     11  C   UNL d   1     126.283 132.621 161.486  0.00  0.00     0.025 C 
ATOM     12  C   UNL d   1     126.782 130.762 157.503  0.00  0.00     0.000 C 
ATOM     13  C   UNL d   1     125.716 130.593 162.860  0.00  0.00    -0.047 C 
ATOM     14  C   UNL d   1     127.415 128.741 162.894  0.00  0.00     0.006 C 
ATOM     15  C   UNL d   1     125.641 131.916 162.640  0.00  0.00    -0.035 C 
ATOM     16  C   UNL d   1     125.533 128.735 161.197  0.00  0.00     0.004 C 
ATOM     17  C   UNL d   1     124.989 129.978 164.041  0.00  0.00     0.051 C 
ATOM     18  C   UNL d   1     126.663 128.090 164.056  0.00  0.00     0.030 C 
ATOM     19  C   UNL d   1     125.922 129.125 164.898  0.00  0.00     0.115 C 
ENDROOT
BRANCH   5  20
ATOM     20  C   UNL d   1     128.919 132.037 155.712  0.00  0.00     0.000 C 
ATOM     21  C   UNL d   1     130.265 131.383 155.379  0.00  0.00     0.000 C 
BRANCH  20  22
ATOM     22  C   UNL d   1     128.707 133.327 154.868  0.00  0.00     0.000 C 
BRANCH  22  23
ATOM     23  C   UNL d   1     128.195 133.168 153.428  0.00  0.00     0.000 C 
BRANCH  23  24
ATOM     24  C   UNL d   1     129.259 133.184 152.324  0.00  0.00     0.000 C 
BRANCH  24  25
ATOM     25  C   UNL d   1     129.055 134.244 151.226  0.00  0.00     0.000 C 
ATOM     26  C   UNL d   1     129.107 133.631 149.823  0.00  0.00     0.000 C 
ATOM     27  C   UNL d   1     127.718 134.961 151.428  0.00  0.00     0.000 C 
ENDBRANCH  24  25
ENDBRANCH  23  24
ENDBRANCH  22  23
ENDBRANCH  20  22
ENDBRANCH   5  20
BRANCH  19  28
ATOM     28  O   UNL d   1     125.149 128.459 165.894  0.00  0.00    -0.385 OA
ATOM     29  H   UNL d   1     125.756 128.204 166.613  0.00  0.00     0.210 HD
ENDBRANCH  19  28
TORSDOF 6
ENDMDL
MODEL 2
REMARK VINA RESULT:    -8.788     14.155     16.002
REMARK INTER + INTRA:         -12.351
REMARK INTER:                 -10.725
REMARK INTRA:                  -1.626
REMARK UNBOUND:                -0.737
REMARK  6 active torsions:
REMARK  status: ('A' for Active; 'I' for Inactive)
REMARK    1  A    between atoms: O_1  and  C_22 
REMARK    2  A    between atoms: C_6  and  C_13 
REMARK    3  A    between atoms: C_13  and  C_21 
REMARK    4  A    between atoms: C_21  and  C_24 
REMARK    5  A    between atoms: C_24  and  C_25 
REMARK    6  A    between atoms: C_25  and  C_26 
ROOT
ATOM      1  C   UNL d   1     126.841 125.692 171.232  0.00  0.00     0.000 C 
ATOM      2  C   UNL d   1     128.340 125.968 170.949  0.00  0.00     0.000 C 
ATOM      3  C   UNL d   1     129.198 124.710 171.088  0.00  0.00     0.005 C 
ATOM      4  C   UNL d   1     128.718 123.629 170.077  0.00  0.00     0.004 C 
ATOM      5  C   UNL d   1     126.255 127.139 171.187  0.00  0.00     0.000 C 
ATOM      6  C   UNL d   1     126.381 124.780 170.078  0.00  0.00     0.000 C 
ATOM      7  C   UNL d   1     129.507 122.272 170.275  0.00  0.00     0.015 C 
ATOM      8  C   UNL d   1     128.664 127.156 171.836  0.00  0.00     0.000 C 
ATOM      9  C   UNL d   1     127.171 123.460 170.040  0.00  0.00     0.000 C 
ATOM     10  C   UNL d   1     127.410 128.028 171.739  0.00  0.00     0.000 C 
ATOM     11  C   UNL d   1     130.690 125.006 170.880  0.00  0.00     0.025 C 
ATOM     12  C   UNL d   1     126.618 125.024 172.611  0.00  0.00     0.000 C 
ATOM     13  C   UNL d   1     131.002 122.541 170.494  0.00  0.00    -0.047 C 
ATOM     14  C   UNL d   1     129.336 121.414 168.987  0.00  0.00     0.006 C 
ATOM     15  C   UNL d   1     131.508 123.761 170.737  0.00  0.00    -0.035 C 
ATOM     16  C   UNL d   1     128.970 121.483 171.494  0.00  0.00     0.004 C 
ATOM     17  C   UNL d   1     131.925 121.340 170.410  0.00  0.00     0.051 C 
ATOM     18  C   UNL d   1     130.239 120.181 168.933  0.00  0.00     0.030 C 
ATOM     19  C   UNL d   1     131.708 120.550 169.121  0.00  0.00     0.115 C 
ENDROOT
BRANCH   5  20
ATOM     20  C   UNL d   1     124.894 127.456 171.898  0.00  0.00     0.000 C 
ATOM     21  C   UNL d   1     123.686 126.858 171.166  0.00  0.00     0.000 C 
BRANCH  20  22
ATOM     22  C   UNL d   1     124.738 128.997 172.053  0.00  0.00     0.000 C 
BRANCH  22  23
ATOM     23  C   UNL d   1     124.661 129.571 173.476  0.00  0.00     0.000 C 
BRANCH  23  24
ATOM     24  C   UNL d   1     124.688 128.551 174.622  0.00  0.00     0.000 C 
BRANCH  24  25
ATOM     25  C   UNL d   1     125.957 128.571 175.494  0.00  0.00     0.000 C 
ATOM     26  C   UNL d   1     126.743 127.261 175.388  0.00  0.00     0.000 C 
ATOM     27  C   UNL d   1     126.853 129.746 175.093  0.00  0.00     0.000 C 
ENDBRANCH  24  25
ENDBRANCH  23  24
ENDBRANCH  22  23
ENDBRANCH  20  22
ENDBRANCH   5  20
BRANCH  19  28
ATOM     28  O   UNL d   1     132.491 119.359 169.175  0.00  0.00    -0.385 OA
ATOM     29  H   UNL d   1     132.602 119.040 168.261  0.00  0.00     0.210 HD
ENDBRANCH  19  28
TORSDOF 6
ENDMDL
MODEL 3
REMARK VINA RESULT:    -8.468     38.864     41.431
REMARK INTER + INTRA:         -11.927
REMARK INTER:                 -10.451
REMARK INTRA:                  -1.476
REMARK UNBOUND:                -0.737
REMARK  6 active torsions:
REMARK  status: ('A' for Active; 'I' for Inactive)
REMARK    1  A    between atoms: O_1  and  C_22 
REMARK    2  A    between atoms: C_6  and  C_13 
REMARK    3  A    between atoms: C_13  and  C_21 
REMARK    4  A    between atoms: C_21  and  C_24 
REMARK    5  A    between atoms: C_24  and  C_25 
REMARK    6  A    between atoms: C_25  and  C_26 
ROOT
ATOM      1  C   UNL d   1     126.833 141.287 198.240  0.00  0.00     0.000 C 
ATOM      2  C   UNL d   1     125.919 140.563 197.219  0.00  0.00     0.000 C 
ATOM      3  C   UNL d   1     124.949 139.592 197.895  0.00  0.00     0.005 C 
ATOM      4  C   UNL d   1     124.032 140.367 198.884  0.00  0.00     0.004 C 
ATOM      5  C   UNL d   1     127.801 142.057 197.286  0.00  0.00     0.000 C 
ATOM      6  C   UNL d   1     125.884 142.190 199.053  0.00  0.00     0.000 C 
ATOM      7  C   UNL d   1     123.095 139.376 199.687  0.00  0.00     0.015 C 
ATOM      8  C   UNL d   1     126.890 140.007 196.194  0.00  0.00     0.000 C 
ATOM      9  C   UNL d   1     124.803 141.375 199.783  0.00  0.00     0.000 C 
ATOM     10  C   UNL d   1     127.935 141.116 196.051  0.00  0.00     0.000 C 
ATOM     11  C   UNL d   1     124.100 138.825 196.872  0.00  0.00     0.025 C 
ATOM     12  C   UNL d   1     127.595 140.294 199.153  0.00  0.00     0.000 C 
ATOM     13  C   UNL d   1     122.523 138.296 198.758  0.00  0.00    -0.047 C 
ATOM     14  C   UNL d   1     121.916 140.196 200.287  0.00  0.00     0.006 C 
ATOM     15  C   UNL d   1     122.966 138.084 197.508  0.00  0.00    -0.035 C 
ATOM     16  C   UNL d   1     123.869 138.675 200.830  0.00  0.00     0.004 C 
ATOM     17  C   UNL d   1     121.391 137.455 199.315  0.00  0.00     0.051 C 
ATOM     18  C   UNL d   1     120.799 139.339 200.887  0.00  0.00     0.030 C 
ATOM     19  C   UNL d   1     120.268 138.322 199.880  0.00  0.00     0.115 C 
ENDROOT
BRANCH   5  20
ATOM     20  C   UNL d   1     129.203 142.529 197.805  0.00  0.00     0.000 C 
ATOM     21  C   UNL d   1     129.429 144.035 197.624  0.00  0.00     0.000 C 
BRANCH  20  22
ATOM     22  C   UNL d   1     130.320 141.712 197.093  0.00  0.00     0.000 C 
BRANCH  22  23
ATOM     23  C   UNL d   1     131.542 141.292 197.922  0.00  0.00     0.000 C 
BRANCH  23  24
ATOM     24  C   UNL d   1     131.292 141.022 199.411  0.00  0.00     0.000 C 
BRANCH  24  25
ATOM     25  C   UNL d   1     131.853 142.081 200.378  0.00  0.00     0.000 C 
ATOM     26  C   UNL d   1     132.512 143.245 199.630  0.00  0.00     0.000 C 
ATOM     27  C   UNL d   1     130.737 142.613 201.281  0.00  0.00     0.000 C 
ENDBRANCH  24  25
ENDBRANCH  23  24
ENDBRANCH  22  23
ENDBRANCH  20  22
ENDBRANCH   5  20
BRANCH  19  28
ATOM     28  O   UNL d   1     119.313 137.478 200.520  0.00  0.00    -0.385 OA
ATOM     29  H   UNL d   1     118.728 137.120 199.827  0.00  0.00     0.210 HD
ENDBRANCH  19  28
TORSDOF 6
ENDMDL
MODEL 4
REMARK VINA RESULT:    -8.071     13.624     16.046
REMARK INTER + INTRA:         -11.404
REMARK INTER:                  -9.815
REMARK INTRA:                  -1.589
REMARK UNBOUND:                -0.737
REMARK  6 active torsions:
REMARK  status: ('A' for Active; 'I' for Inactive)
REMARK    1  A    between atoms: O_1  and  C_22 
REMARK    2  A    between atoms: C_6  and  C_13 
REMARK    3  A    between atoms: C_13  and  C_21 
REMARK    4  A    between atoms: C_21  and  C_24 
REMARK    5  A    between atoms: C_24  and  C_25 
REMARK    6  A    between atoms: C_25  and  C_26 
ROOT
ATOM      1  C   UNL d   1     128.352 126.280 172.496  0.00  0.00     0.000 C 
ATOM      2  C   UNL d   1     128.107 124.836 173.003  0.00  0.00     0.000 C 
ATOM      3  C   UNL d   1     128.556 123.782 171.991  0.00  0.00     0.005 C 
ATOM      4  C   UNL d   1     130.080 123.933 171.713  0.00  0.00     0.004 C 
ATOM      5  C   UNL d   1     127.663 127.116 173.622  0.00  0.00     0.000 C 
ATOM      6  C   UNL d   1     129.885 126.426 172.439  0.00  0.00     0.000 C 
ATOM      7  C   UNL d   1     130.555 122.934 170.582  0.00  0.00     0.015 C 
ATOM      8  C   UNL d   1     126.651 124.844 173.430  0.00  0.00     0.000 C 
ATOM      9  C   UNL d   1     130.524 125.406 171.481  0.00  0.00     0.000 C 
ATOM     10  C   UNL d   1     126.474 126.218 174.080  0.00  0.00     0.000 C 
ATOM     11  C   UNL d   1     128.242 122.357 172.468  0.00  0.00     0.025 C 
ATOM     12  C   UNL d   1     127.704 126.534 171.112  0.00  0.00     0.000 C 
ATOM     13  C   UNL d   1     129.920 121.550 170.778  0.00  0.00    -0.047 C 
ATOM     14  C   UNL d   1     132.102 122.792 170.672  0.00  0.00     0.006 C 
ATOM     15  C   UNL d   1     128.914 121.311 171.635  0.00  0.00    -0.035 C 
ATOM     16  C   UNL d   1     130.167 123.453 169.175  0.00  0.00     0.004 C 
ATOM     17  C   UNL d   1     130.498 120.417 169.951  0.00  0.00     0.051 C 
ATOM     18  C   UNL d   1     132.680 121.675 169.800  0.00  0.00     0.030 C 
ATOM     19  C   UNL d   1     132.016 120.333 170.092  0.00  0.00     0.115 C 
ENDROOT
BRANCH   5  20
ATOM     20  C   UNL d   1     127.198 128.586 173.334  0.00  0.00     0.000 C 
ATOM     21  C   UNL d   1     127.932 129.622 174.193  0.00  0.00     0.000 C 
BRANCH  20  22
ATOM     22  C   UNL d   1     125.658 128.689 173.538  0.00  0.00     0.000 C 
BRANCH  22  23
ATOM     23  C   UNL d   1     124.863 129.575 172.567  0.00  0.00     0.000 C 
BRANCH  23  24
ATOM     24  C   UNL d   1     123.969 128.843 171.559  0.00  0.00     0.000 C 
BRANCH  24  25
ATOM     25  C   UNL d   1     124.196 127.324 171.455  0.00  0.00     0.000 C 
ATOM     26  C   UNL d   1     123.109 126.533 172.189  0.00  0.00     0.000 C 
ATOM     27  C   UNL d   1     124.241 126.899 169.985  0.00  0.00     0.000 C 
ENDBRANCH  24  25
ENDBRANCH  23  24
ENDBRANCH  22  23
ENDBRANCH  20  22
ENDBRANCH   5  20
BRANCH  19  28
ATOM     28  O   UNL d   1     132.508 119.353 169.179  0.00  0.00    -0.385 OA
ATOM     29  H   UNL d   1     132.350 119.689 168.278  0.00  0.00     0.210 HD
ENDBRANCH  19  28
TORSDOF 6
ENDMDL
MODEL 5
REMARK VINA RESULT:    -8.038      6.761      9.794
REMARK INTER + INTRA:         -11.360
REMARK INTER:                 -10.196
REMARK INTRA:                  -1.164
REMARK UNBOUND:                -0.737
REMARK  6 active torsions:
REMARK  status: ('A' for Active; 'I' for Inactive)
REMARK    1  A    between atoms: O_1  and  C_22 
REMARK    2  A    between atoms: C_6  and  C_13 
REMARK    3  A    between atoms: C_13  and  C_21 
REMARK    4  A    between atoms: C_21  and  C_24 
REMARK    5  A    between atoms: C_24  and  C_25 
REMARK    6  A    between atoms: C_25  and  C_26 
ROOT
ATOM      1  C   UNL d   1     130.612 126.036 154.025  0.00  0.00     0.000 C 
ATOM      2  C   UNL d   1     129.300 126.763 153.635  0.00  0.00     0.000 C 
ATOM      3  C   UNL d   1     128.963 127.906 154.593  0.00  0.00     0.005 C 
ATOM      4  C   UNL d   1     130.109 128.959 154.581  0.00  0.00     0.004 C 
ATOM      5  C   UNL d   1     130.613 124.849 153.009  0.00  0.00     0.000 C 
ATOM      6  C   UNL d   1     131.726 127.075 153.794  0.00  0.00     0.000 C 
ATOM      7  C   UNL d   1     129.849 130.097 155.649  0.00  0.00     0.015 C 
ATOM      8  C   UNL d   1     128.293 125.637 153.483  0.00  0.00     0.000 C 
ATOM      9  C   UNL d   1     131.529 128.330 154.662  0.00  0.00     0.000 C 
ATOM     10  C   UNL d   1     129.101 124.521 152.816  0.00  0.00     0.000 C 
ATOM     11  C   UNL d   1     127.625 128.572 154.245  0.00  0.00     0.025 C 
ATOM     12  C   UNL d   1     130.593 125.537 155.491  0.00  0.00     0.000 C 
ATOM     13  C   UNL d   1     128.376 130.530 155.633  0.00  0.00    -0.047 C 
ATOM     14  C   UNL d   1     130.735 131.324 155.283  0.00  0.00     0.006 C 
ATOM     15  C   UNL d   1     127.412 129.855 154.986  0.00  0.00    -0.035 C 
ATOM     16  C   UNL d   1     130.200 129.616 157.078  0.00  0.00     0.004 C 
ATOM     17  C   UNL d   1     128.036 131.801 156.389  0.00  0.00     0.051 C 
ATOM     18  C   UNL d   1     130.414 132.588 156.082  0.00  0.00     0.030 C 
ATOM     19  C   UNL d   1     128.938 132.962 155.976  0.00  0.00     0.115 C 
ENDROOT
BRANCH   5  20
ATOM     20  C   UNL d   1     131.448 123.557 153.312  0.00  0.00     0.000 C 
ATOM     21  C   UNL d   1     132.397 123.180 152.169  0.00  0.00     0.000 C 
BRANCH  20  22
ATOM     22  C   UNL d   1     130.482 122.382 153.639  0.00  0.00     0.000 C 
BRANCH  22  23
ATOM     23  C   UNL d   1     131.067 120.963 153.685  0.00  0.00     0.000 C 
BRANCH  23  24
ATOM     24  C   UNL d   1     131.399 120.410 155.077  0.00  0.00     0.000 C 
BRANCH  24  25
ATOM     25  C   UNL d   1     132.892 120.423 155.453  0.00  0.00     0.000 C 
ATOM     26  C   UNL d   1     133.790 120.190 154.234  0.00  0.00     0.000 C 
ATOM     27  C   UNL d   1     133.257 121.753 156.118  0.00  0.00     0.000 C 
ENDBRANCH  24  25
ENDBRANCH  23  24
ENDBRANCH  22  23
ENDBRANCH  20  22
ENDBRANCH   5  20
BRANCH  19  28
ATOM     28  O   UNL d   1     128.670 134.076 156.826  0.00  0.00    -0.385 OA
ATOM     29  H   UNL d   1     128.177 134.732 156.301  0.00  0.00     0.210 HD
ENDBRANCH  19  28
TORSDOF 6
ENDMDL
MODEL 6
REMARK VINA RESULT:    -7.942      5.299      9.896
REMARK INTER + INTRA:         -11.232
REMARK INTER:                 -10.293
REMARK INTRA:                  -0.939
REMARK UNBOUND:                -0.737
REMARK  6 active torsions:
REMARK  status: ('A' for Active; 'I' for Inactive)
REMARK    1  A    between atoms: O_1  and  C_22 
REMARK    2  A    between atoms: C_6  and  C_13 
REMARK    3  A    between atoms: C_13  and  C_21 
REMARK    4  A    between atoms: C_21  and  C_24 
REMARK    5  A    between atoms: C_24  and  C_25 
REMARK    6  A    between atoms: C_25  and  C_26 
ROOT
ATOM      1  C   UNL d   1     128.385 127.520 158.866  0.00  0.00     0.000 C 
ATOM      2  C   UNL d   1     127.720 127.289 157.485  0.00  0.00     0.000 C 
ATOM      3  C   UNL d   1     128.743 126.970 156.395  0.00  0.00     0.005 C 
ATOM      4  C   UNL d   1     129.522 125.675 156.766  0.00  0.00     0.004 C 
ATOM      5  C   UNL d   1     127.159 127.982 159.718  0.00  0.00     0.000 C 
ATOM      6  C   UNL d   1     128.960 126.147 159.265  0.00  0.00     0.000 C 
ATOM      7  C   UNL d   1     130.670 125.380 155.718  0.00  0.00     0.015 C 
ATOM      8  C   UNL d   1     126.835 128.508 157.301  0.00  0.00     0.000 C 
ATOM      9  C   UNL d   1     129.997 125.642 158.248  0.00  0.00     0.000 C 
ATOM     10  C   UNL d   1     126.267 128.755 158.700  0.00  0.00     0.000 C 
ATOM     11  C   UNL d   1     128.085 126.816 155.016  0.00  0.00     0.025 C 
ATOM     12  C   UNL d   1     129.489 128.606 158.812  0.00  0.00     0.000 C 
ATOM     13  C   UNL d   1     130.172 125.620 154.285  0.00  0.00    -0.047 C 
ATOM     14  C   UNL d   1     131.090 123.888 155.858  0.00  0.00     0.006 C 
ATOM     15  C   UNL d   1     129.014 126.236 153.997  0.00  0.00    -0.035 C 
ATOM     16  C   UNL d   1     131.902 126.286 155.963  0.00  0.00     0.004 C 
ATOM     17  C   UNL d   1     131.058 125.106 153.167  0.00  0.00     0.051 C 
ATOM     18  C   UNL d   1     132.019 123.392 154.749  0.00  0.00     0.030 C 
ATOM     19  C   UNL d   1     131.424 123.637 153.365  0.00  0.00     0.115 C 
ENDROOT
BRANCH   5  20
ATOM     20  C   UNL d   1     127.384 128.808 161.031  0.00  0.00     0.000 C 
ATOM     21  C   UNL d   1     127.914 127.954 162.189  0.00  0.00     0.000 C 
BRANCH  20  22
ATOM     22  C   UNL d   1     126.056 129.516 161.429  0.00  0.00     0.000 C 
BRANCH  22  23
ATOM     23  C   UNL d   1     125.019 128.705 162.220  0.00  0.00     0.000 C 
BRANCH  23  24
ATOM     24  C   UNL d   1     124.108 129.501 163.162  0.00  0.00     0.000 C 
BRANCH  24  25
ATOM     25  C   UNL d   1     124.448 129.390 164.659  0.00  0.00     0.000 C 
ATOM     26  C   UNL d   1     124.897 127.976 165.040  0.00  0.00     0.000 C 
ATOM     27  C   UNL d   1     125.541 130.397 165.027  0.00  0.00     0.000 C 
ENDBRANCH  24  25
ENDBRANCH  23  24
ENDBRANCH  22  23
ENDBRANCH  20  22
ENDBRANCH   5  20
BRANCH  19  28
ATOM     28  O   UNL d   1     132.374 123.262 152.369  0.00  0.00    -0.385 OA
ATOM     29  H   UNL d   1     131.900 122.746 151.692  0.00  0.00     0.210 HD
ENDBRANCH  19  28
TORSDOF 6
ENDMDL
MODEL 7
REMARK VINA RESULT:    -7.941     38.066     41.208
REMARK INTER + INTRA:         -11.231
REMARK INTER:                  -9.828
REMARK INTRA:                  -1.402
REMARK UNBOUND:                -0.737
REMARK  6 active torsions:
REMARK  status: ('A' for Active; 'I' for Inactive)
REMARK    1  A    between atoms: O_1  and  C_22 
REMARK    2  A    between atoms: C_6  and  C_13 
REMARK    3  A    between atoms: C_13  and  C_21 
REMARK    4  A    between atoms: C_21  and  C_24 
REMARK    5  A    between atoms: C_24  and  C_25 
REMARK    6  A    between atoms: C_25  and  C_26 
ROOT
ATOM      1  C   UNL d   1     125.818 141.299 198.840  0.00  0.00     0.000 C 
ATOM      2  C   UNL d   1     125.114 141.193 197.463  0.00  0.00     0.000 C 
ATOM      3  C   UNL d   1     124.617 139.776 197.173  0.00  0.00     0.005 C 
ATOM      4  C   UNL d   1     123.593 139.343 198.261  0.00  0.00     0.004 C 
ATOM      5  C   UNL d   1     126.356 142.765 198.793  0.00  0.00     0.000 C 
ATOM      6  C   UNL d   1     124.703 141.059 199.876  0.00  0.00     0.000 C 
ATOM      7  C   UNL d   1     123.147 137.839 198.059  0.00  0.00     0.015 C 
ATOM      8  C   UNL d   1     126.108 141.813 196.499  0.00  0.00     0.000 C 
ATOM      9  C   UNL d   1     124.053 139.675 199.711  0.00  0.00     0.000 C 
ATOM     10  C   UNL d   1     126.682 142.994 197.286  0.00  0.00     0.000 C 
ATOM     11  C   UNL d   1     123.988 139.663 195.777  0.00  0.00     0.025 C 
ATOM     12  C   UNL d   1     126.967 140.270 198.992  0.00  0.00     0.000 C 
ATOM     13  C   UNL d   1     122.895 137.543 196.573  0.00  0.00    -0.047 C 
ATOM     14  C   UNL d   1     121.824 137.610 198.846  0.00  0.00     0.006 C 
ATOM     15  C   UNL d   1     123.253 138.374 195.581  0.00  0.00    -0.035 C 
ATOM     16  C   UNL d   1     124.229 136.858 198.574  0.00  0.00     0.004 C 
ATOM     17  C   UNL d   1     122.189 136.239 196.254  0.00  0.00     0.051 C 
ATOM     18  C   UNL d   1     121.143 136.272 198.550  0.00  0.00     0.030 C 
ATOM     19  C   UNL d   1     120.898 136.084 197.055  0.00  0.00     0.115 C 
ENDROOT
BRANCH   5  20
ATOM     20  C   UNL d   1     127.551 143.192 199.713  0.00  0.00     0.000 C 
ATOM     21  C   UNL d   1     127.184 144.328 200.675  0.00  0.00     0.000 C 
BRANCH  20  22
ATOM     22  C   UNL d   1     128.768 143.588 198.827  0.00  0.00     0.000 C 
BRANCH  22  23
ATOM     23  C   UNL d   1     129.960 142.620 198.772  0.00  0.00     0.000 C 
BRANCH  23  24
ATOM     24  C   UNL d   1     131.092 142.880 199.773  0.00  0.00     0.000 C 
BRANCH  24  25
ATOM     25  C   UNL d   1     130.997 142.098 201.096  0.00  0.00     0.000 C 
ATOM     26  C   UNL d   1     130.326 142.921 202.199  0.00  0.00     0.000 C 
ATOM     27  C   UNL d   1     130.225 140.794 200.881  0.00  0.00     0.000 C 
ENDBRANCH  24  25
ENDBRANCH  23  24
ENDBRANCH  22  23
ENDBRANCH  20  22
ENDBRANCH   5  20
BRANCH  19  28
ATOM     28  O   UNL d   1     120.368 134.780 196.824  0.00  0.00    -0.385 OA
ATOM     29  H   UNL d   1     119.648 134.869 196.172  0.00  0.00     0.210 HD
ENDBRANCH  19  28
TORSDOF 6
ENDMDL
MODEL 8
REMARK VINA RESULT:    -7.924     32.424     36.932
REMARK INTER + INTRA:         -11.209
REMARK INTER:                  -9.568
REMARK INTRA:                  -1.641
REMARK UNBOUND:                -0.737
REMARK  6 active torsions:
REMARK  status: ('A' for Active; 'I' for Inactive)
REMARK    1  A    between atoms: O_1  and  C_22 
REMARK    2  A    between atoms: C_6  and  C_13 
REMARK    3  A    between atoms: C_13  and  C_21 
REMARK    4  A    between atoms: C_21  and  C_24 
REMARK    5  A    between atoms: C_24  and  C_25 
REMARK    6  A    between atoms: C_25  and  C_26 
ROOT
ATOM      1  C   UNL d   1     105.984 146.390 184.955  0.00  0.00     0.000 C 
ATOM      2  C   UNL d   1     106.668 147.767 184.760  0.00  0.00     0.000 C 
ATOM      3  C   UNL d   1     107.656 147.765 183.592  0.00  0.00     0.005 C 
ATOM      4  C   UNL d   1     106.911 147.416 182.272  0.00  0.00     0.004 C 
ATOM      5  C   UNL d   1     105.188 146.632 186.276  0.00  0.00     0.000 C 
ATOM      6  C   UNL d   1     105.105 146.202 183.703  0.00  0.00     0.000 C 
ATOM      7  C   UNL d   1     107.923 147.289 181.062  0.00  0.00     0.015 C 
ATOM      8  C   UNL d   1     107.194 148.110 186.141  0.00  0.00     0.000 C 
ATOM      9  C   UNL d   1     105.938 146.209 182.410  0.00  0.00     0.000 C 
ATOM     10  C   UNL d   1     106.086 147.622 187.078  0.00  0.00     0.000 C 
ATOM     11  C   UNL d   1     108.383 149.110 183.453  0.00  0.00     0.025 C 
ATOM     12  C   UNL d   1     107.013 145.241 185.106  0.00  0.00     0.000 C 
ATOM     13  C   UNL d   1     108.967 148.414 181.108  0.00  0.00    -0.047 C 
ATOM     14  C   UNL d   1     107.118 147.407 179.735  0.00  0.00     0.006 C 
ATOM     15  C   UNL d   1     109.138 149.223 182.166  0.00  0.00    -0.035 C 
ATOM     16  C   UNL d   1     108.668 145.931 181.094  0.00  0.00     0.004 C 
ATOM     17  C   UNL d   1     109.821 148.595 179.867  0.00  0.00     0.051 C 
ATOM     18  C   UNL d   1     107.989 147.545 178.485  0.00  0.00     0.030 C 
ATOM     19  C   UNL d   1     108.967 148.710 178.606  0.00  0.00     0.115 C 
ENDROOT
BRANCH   5  20
ATOM     20  C   UNL d   1     104.742 145.415 187.158  0.00  0.00     0.000 C 
ATOM     21  C   UNL d   1     103.250 145.451 187.511  0.00  0.00     0.000 C 
BRANCH  20  22
ATOM     22  C   UNL d   1     105.614 145.363 188.446  0.00  0.00     0.000 C 
BRANCH  22  23
ATOM     23  C   UNL d   1     106.251 144.018 188.827  0.00  0.00     0.000 C 
BRANCH  23  24
ATOM     24  C   UNL d   1     107.784 143.964 188.811  0.00  0.00     0.000 C 
BRANCH  24  25
ATOM     25  C   UNL d   1     108.489 145.311 188.569  0.00  0.00     0.000 C 
ATOM     26  C   UNL d   1     108.986 145.938 189.875  0.00  0.00     0.000 C 
ATOM     27  C   UNL d   1     109.664 145.123 187.605  0.00  0.00     0.000 C 
ENDBRANCH  24  25
ENDBRANCH  23  24
ENDBRANCH  22  23
ENDBRANCH  20  22
ENDBRANCH   5  20
BRANCH  19  28
ATOM     28  O   UNL d   1     109.828 148.725 177.469  0.00  0.00    -0.385 OA
ATOM     29  H   UNL d   1     110.242 147.845 177.405  0.00  0.00     0.210 HD
ENDBRANCH  19  28
TORSDOF 6
ENDMDL
MODEL 9
REMARK VINA RESULT:    -7.689     35.503     40.131
REMARK INTER + INTRA:         -10.898
REMARK INTER:                  -9.374
REMARK INTRA:                  -1.525
REMARK UNBOUND:                -0.737
REMARK  6 active torsions:
REMARK  status: ('A' for Active; 'I' for Inactive)
REMARK    1  A    between atoms: O_1  and  C_22 
REMARK    2  A    between atoms: C_6  and  C_13 
REMARK    3  A    between atoms: C_13  and  C_21 
REMARK    4  A    between atoms: C_21  and  C_24 
REMARK    5  A    between atoms: C_24  and  C_25 
REMARK    6  A    between atoms: C_25  and  C_26 
ROOT
ATOM      1  C   UNL d   1     125.631 140.778 197.378  0.00  0.00     0.000 C 
ATOM      2  C   UNL d   1     124.788 139.664 198.051  0.00  0.00     0.000 C 
ATOM      3  C   UNL d   1     124.169 138.708 197.031  0.00  0.00     0.005 C 
ATOM      4  C   UNL d   1     125.294 138.016 196.207  0.00  0.00     0.004 C 
ATOM      5  C   UNL d   1     125.984 141.674 198.608  0.00  0.00     0.000 C 
ATOM      6  C   UNL d   1     126.835 140.043 196.756  0.00  0.00     0.000 C 
ATOM      7  C   UNL d   1     124.686 137.109 195.062  0.00  0.00     0.015 C 
ATOM      8  C   UNL d   1     123.856 140.424 198.976  0.00  0.00     0.000 C 
ATOM      9  C   UNL d   1     126.395 139.000 195.715  0.00  0.00     0.000 C 
ATOM     10  C   UNL d   1     124.738 141.542 199.536  0.00  0.00     0.000 C 
ATOM     11  C   UNL d   1     123.276 137.654 197.700  0.00  0.00     0.025 C 
ATOM     12  C   UNL d   1     124.825 141.558 196.310  0.00  0.00     0.000 C 
ATOM     13  C   UNL d   1     123.483 136.311 195.584  0.00  0.00    -0.047 C 
ATOM     14  C   UNL d   1     125.784 136.110 194.594  0.00  0.00     0.006 C 
ATOM     15  C   UNL d   1     122.889 136.552 196.764  0.00  0.00    -0.035 C 
ATOM     16  C   UNL d   1     124.219 137.962 193.857  0.00  0.00     0.004 C 
ATOM     17  C   UNL d   1     122.978 135.190 194.695  0.00  0.00     0.051 C 
ATOM     18  C   UNL d   1     125.273 135.010 193.662  0.00  0.00     0.030 C 
ATOM     19  C   UNL d   1     124.105 134.247 194.280  0.00  0.00     0.115 C 
ENDROOT
BRANCH   5  20
ATOM     20  C   UNL d   1     126.388 143.174 198.395  0.00  0.00     0.000 C 
ATOM     21  C   UNL d   1     127.811 143.335 197.848  0.00  0.00     0.000 C 
BRANCH  20  22
ATOM     22  C   UNL d   1     126.219 143.949 199.734  0.00  0.00     0.000 C 
BRANCH  22  23
ATOM     23  C   UNL d   1     127.432 144.032 200.673  0.00  0.00     0.000 C 
BRANCH  23  24
ATOM     24  C   UNL d   1     127.490 142.993 201.799  0.00  0.00     0.000 C 
BRANCH  24  25
ATOM     25  C   UNL d   1     128.694 142.035 201.752  0.00  0.00     0.000 C 
ATOM     26  C   UNL d   1     128.312 140.665 201.184  0.00  0.00     0.000 C 
ATOM     27  C   UNL d   1     129.820 142.646 200.913  0.00  0.00     0.000 C 
ENDBRANCH  24  25
ENDBRANCH  23  24
ENDBRANCH  22  23
ENDBRANCH  20  22
ENDBRANCH   5  20
BRANCH  19  28
ATOM     28  O   UNL d   1     123.595 133.313 193.330  0.00  0.00    -0.385 OA
ATOM     29  H   UNL d   1     123.067 132.655 193.820  0.00  0.00     0.210 HD
ENDBRANCH  19  28
TORSDOF 6
ENDMDL
MODEL 10
REMARK VINA RESULT:    -7.615      5.738      8.030
REMARK INTER + INTRA:         -10.801
REMARK INTER:                 -10.805
REMARK INTRA:                   0.004
REMARK UNBOUND:                -0.737
REMARK  6 active torsions:
REMARK  status: ('A' for Active; 'I' for Inactive)
REMARK    1  A    between atoms: O_1  and  C_22 
REMARK    2  A    between atoms: C_6  and  C_13 
REMARK    3  A    between atoms: C_13  and  C_21 
REMARK    4  A    between atoms: C_21  and  C_24 
REMARK    5  A    between atoms: C_24  and  C_25 
REMARK    6  A    between atoms: C_25  and  C_26 
ROOT
ATOM      1  C   UNL d   1     129.357 126.909 154.041  0.00  0.00     0.000 C 
ATOM      2  C   UNL d   1     127.907 127.391 154.301  0.00  0.00     0.000 C 
ATOM      3  C   UNL d   1     127.818 128.344 155.494  0.00  0.00     0.005 C 
ATOM      4  C   UNL d   1     128.694 129.603 155.230  0.00  0.00     0.004 C 
ATOM      5  C   UNL d   1     129.126 125.851 152.915  0.00  0.00     0.000 C 
ATOM      6  C   UNL d   1     130.120 128.169 153.587  0.00  0.00     0.000 C 
ATOM      7  C   UNL d   1     128.718 130.555 156.493  0.00  0.00     0.015 C 
ATOM      8  C   UNL d   1     127.101 126.106 154.351  0.00  0.00     0.000 C 
ATOM      9  C   UNL d   1     130.104 129.268 154.664  0.00  0.00     0.000 C 
ATOM     10  C   UNL d   1     127.730 125.246 153.251  0.00  0.00     0.000 C 
ATOM     11  C   UNL d   1     126.370 128.758 155.791  0.00  0.00     0.025 C 
ATOM     12  C   UNL d   1     130.000 126.276 155.300  0.00  0.00     0.000 C 
ATOM     13  C   UNL d   1     127.316 130.682 157.104  0.00  0.00    -0.047 C 
ATOM     14  C   UNL d   1     129.193 131.965 156.034  0.00  0.00     0.006 C 
ATOM     15  C   UNL d   1     126.285 129.892 156.763  0.00  0.00    -0.035 C 
ATOM     16  C   UNL d   1     129.679 130.019 157.582  0.00  0.00     0.004 C 
ATOM     17  C   UNL d   1     127.124 131.778 158.135  0.00  0.00     0.051 C 
ATOM     18  C   UNL d   1     129.037 133.055 157.095  0.00  0.00     0.030 C 
ATOM     19  C   UNL d   1     127.604 133.132 157.616  0.00  0.00     0.115 C 
ENDROOT
BRANCH   5  20
ATOM     20  C   UNL d   1     130.193 124.731 152.660  0.00  0.00     0.000 C 
ATOM     21  C   UNL d   1     129.914 123.450 153.455  0.00  0.00     0.000 C 
BRANCH  20  22
ATOM     22  C   UNL d   1     131.611 125.286 152.983  0.00  0.00     0.000 C 
BRANCH  22  23
ATOM     23  C   UNL d   1     132.641 125.332 151.844  0.00  0.00     0.000 C 
BRANCH  23  24
ATOM     24  C   UNL d   1     132.950 123.998 151.154  0.00  0.00     0.000 C 
BRANCH  24  25
ATOM     25  C   UNL d   1     134.131 124.023 150.167  0.00  0.00     0.000 C 
ATOM     26  C   UNL d   1     133.676 123.784 148.724  0.00  0.00     0.000 C 
ATOM     27  C   UNL d   1     134.867 125.363 150.262  0.00  0.00     0.000 C 
ENDBRANCH  24  25
ENDBRANCH  23  24
ENDBRANCH  22  23
ENDBRANCH  20  22
ENDBRANCH   5  20
BRANCH  19  28
ATOM     28  O   UNL d   1     127.538 134.081 158.679  0.00  0.00    -0.385 OA
ATOM     29  H   UNL d   1     127.929 133.664 159.468  0.00  0.00     0.210 HD
ENDBRANCH  19  28
TORSDOF 6
ENDMDL
MODEL 11
REMARK VINA RESULT:    -7.559     40.678     43.224
REMARK INTER + INTRA:         -10.726
REMARK INTER:                  -9.468
REMARK INTRA:                  -1.259
REMARK UNBOUND:                -0.737
REMARK  6 active torsions:
REMARK  status: ('A' for Active; 'I' for Inactive)
REMARK    1  A    between atoms: O_1  and  C_22 
REMARK    2  A    between atoms: C_6  and  C_13 
REMARK    3  A    between atoms: C_13  and  C_21 
REMARK    4  A    between atoms: C_21  and  C_24 
REMARK    5  A    between atoms: C_24  and  C_25 
REMARK    6  A    between atoms: C_25  and  C_26 
ROOT
ATOM      1  C   UNL d   1     125.917 138.674 199.745  0.00  0.00     0.000 C 
ATOM      2  C   UNL d   1     126.818 137.934 200.767  0.00  0.00     0.000 C 
ATOM      3  C   UNL d   1     128.285 138.354 200.657  0.00  0.00     0.005 C 
ATOM      4  C   UNL d   1     128.418 139.880 200.929  0.00  0.00     0.004 C 
ATOM      5  C   UNL d   1     124.553 137.945 199.963  0.00  0.00     0.000 C 
ATOM      6  C   UNL d   1     125.933 140.148 200.196  0.00  0.00     0.000 C 
ATOM      7  C   UNL d   1     129.906 140.370 200.708  0.00  0.00     0.015 C 
ATOM      8  C   UNL d   1     126.475 136.471 200.558  0.00  0.00     0.000 C 
ATOM      9  C   UNL d   1     127.354 140.737 200.183  0.00  0.00     0.000 C 
ATOM     10  C   UNL d   1     124.963 136.486 200.326  0.00  0.00     0.000 C 
ATOM     11  C   UNL d   1     129.182 137.562 201.620  0.00  0.00     0.025 C 
ATOM     12  C   UNL d   1     126.427 138.518 198.291  0.00  0.00     0.000 C 
ATOM     13  C   UNL d   1     130.902 139.370 201.310  0.00  0.00    -0.047 C 
ATOM     14  C   UNL d   1     130.081 141.742 201.422  0.00  0.00     0.006 C 
ATOM     15  C   UNL d   1     130.557 138.142 201.729  0.00  0.00    -0.035 C 
ATOM     16  C   UNL d   1     130.227 140.530 199.201  0.00  0.00     0.004 C 
ATOM     17  C   UNL d   1     132.340 139.838 201.433  0.00  0.00     0.051 C 
ATOM     18  C   UNL d   1     131.530 142.227 201.502  0.00  0.00     0.030 C 
ATOM     19  C   UNL d   1     132.437 141.184 202.149  0.00  0.00     0.115 C 
ENDROOT
BRANCH   5  20
ATOM     20  C   UNL d   1     123.460 137.973 198.838  0.00  0.00     0.000 C 
ATOM     21  C   UNL d   1     123.052 139.397 198.441  0.00  0.00     0.000 C 
BRANCH  20  22
ATOM     22  C   UNL d   1     122.222 137.151 199.300  0.00  0.00     0.000 C 
BRANCH  22  23
ATOM     23  C   UNL d   1     121.079 137.905 199.996  0.00  0.00     0.000 C 
BRANCH  23  24
ATOM     24  C   UNL d   1     121.321 138.308 201.456  0.00  0.00     0.000 C 
BRANCH  24  25
ATOM     25  C   UNL d   1     121.165 139.809 201.761  0.00  0.00     0.000 C 
ATOM     26  C   UNL d   1     122.517 140.528 201.796  0.00  0.00     0.000 C 
ATOM     27  C   UNL d   1     120.256 140.466 200.719  0.00  0.00     0.000 C 
ENDBRANCH  24  25
ENDBRANCH  23  24
ENDBRANCH  22  23
ENDBRANCH  20  22
ENDBRANCH   5  20
BRANCH  19  28
ATOM     28  O   UNL d   1     133.789 141.635 202.096  0.00  0.00    -0.385 OA
ATOM     29  H   UNL d   1     134.193 141.452 202.964  0.00  0.00     0.210 HD
ENDBRANCH  19  28
TORSDOF 6
ENDMDL
MODEL 12
REMARK VINA RESULT:    -7.545     33.173     37.269
REMARK INTER + INTRA:         -10.707
REMARK INTER:                  -9.676
REMARK INTRA:                  -1.032
REMARK UNBOUND:                -0.737
REMARK  6 active torsions:
REMARK  status: ('A' for Active; 'I' for Inactive)
REMARK    1  A    between atoms: O_1  and  C_22 
REMARK    2  A    between atoms: C_6  and  C_13 
REMARK    3  A    between atoms: C_13  and  C_21 
REMARK    4  A    between atoms: C_21  and  C_24 
REMARK    5  A    between atoms: C_24  and  C_25 
REMARK    6  A    between atoms: C_25  and  C_26 
ROOT
ATOM      1  C   UNL d   1     106.584 146.808 184.134  0.00  0.00     0.000 C 
ATOM      2  C   UNL d   1     105.236 147.042 183.404  0.00  0.00     0.000 C 
ATOM      3  C   UNL d   1     104.032 146.749 184.301  0.00  0.00     0.005 C 
ATOM      4  C   UNL d   1     104.063 147.681 185.546  0.00  0.00     0.004 C 
ATOM      5  C   UNL d   1     107.599 147.010 182.964  0.00  0.00     0.000 C 
ATOM      6  C   UNL d   1     106.639 147.895 185.225  0.00  0.00     0.000 C 
ATOM      7  C   UNL d   1     102.896 147.325 186.554  0.00  0.00     0.015 C 
ATOM      8  C   UNL d   1     105.379 146.251 182.117  0.00  0.00     0.000 C 
ATOM      9  C   UNL d   1     105.466 147.777 186.213  0.00  0.00     0.000 C 
ATOM     10  C   UNL d   1     106.836 146.485 181.711  0.00  0.00     0.000 C 
ATOM     11  C   UNL d   1     102.704 146.911 183.548  0.00  0.00     0.025 C 
ATOM     12  C   UNL d   1     106.682 145.386 184.741  0.00  0.00     0.000 C 
ATOM     13  C   UNL d   1     101.587 147.060 185.797  0.00  0.00    -0.047 C 
ATOM     14  C   UNL d   1     102.686 148.537 187.508  0.00  0.00     0.006 C 
ATOM     15  C   UNL d   1     101.520 146.903 184.465  0.00  0.00    -0.035 C 
ATOM     16  C   UNL d   1     103.240 146.067 187.388  0.00  0.00     0.004 C 
ATOM     17  C   UNL d   1     100.325 146.991 186.634  0.00  0.00     0.051 C 
ATOM     18  C   UNL d   1     101.433 148.437 188.379  0.00  0.00     0.030 C 
ATOM     19  C   UNL d   1     100.179 148.213 187.539  0.00  0.00     0.115 C 
ENDROOT
BRANCH   5  20
ATOM     20  C   UNL d   1     109.039 146.396 183.061  0.00  0.00     0.000 C 
ATOM     21  C   UNL d   1     109.942 147.149 184.046  0.00  0.00     0.000 C 
BRANCH  20  22
ATOM     22  C   UNL d   1     109.679 146.356 181.643  0.00  0.00     0.000 C 
BRANCH  22  23
ATOM     23  C   UNL d   1     110.271 147.659 181.085  0.00  0.00     0.000 C 
BRANCH  23  24
ATOM     24  C   UNL d   1     109.434 148.387 180.027  0.00  0.00     0.000 C 
BRANCH  24  25
ATOM     25  C   UNL d   1     109.454 147.758 178.622  0.00  0.00     0.000 C 
ATOM     26  C   UNL d   1     108.142 147.034 178.302  0.00  0.00     0.000 C 
ATOM     27  C   UNL d   1     109.721 148.835 177.567  0.00  0.00     0.000 C 
ENDBRANCH  24  25
ENDBRANCH  23  24
ENDBRANCH  22  23
ENDBRANCH  20  22
ENDBRANCH   5  20
BRANCH  19  28
ATOM     28  O   UNL d   1      99.061 148.014 188.402  0.00  0.00    -0.385 OA
ATOM     29  H   UNL d   1      98.300 148.478 188.006  0.00  0.00     0.210 HD
ENDBRANCH  19  28
TORSDOF 6
ENDMDL
MODEL 13
REMARK VINA RESULT:    -7.529     40.407     44.603
REMARK INTER + INTRA:         -10.687
REMARK INTER:                  -9.089
REMARK INTRA:                  -1.598
REMARK UNBOUND:                -0.737
REMARK  6 active torsions:
REMARK  status: ('A' for Active; 'I' for Inactive)
REMARK    1  A    between atoms: O_1  and  C_22 
REMARK    2  A    between atoms: C_6  and  C_13 
REMARK    3  A    between atoms: C_13  and  C_21 
REMARK    4  A    between atoms: C_21  and  C_24 
REMARK    5  A    between atoms: C_24  and  C_25 
REMARK    6  A    between atoms: C_25  and  C_26 
ROOT
ATOM      1  C   UNL d   1     108.963 149.340 194.568  0.00  0.00     0.000 C 
ATOM      2  C   UNL d   1     108.623 148.520 195.839  0.00  0.00     0.000 C 
ATOM      3  C   UNL d   1     109.830 148.358 196.765  0.00  0.00     0.005 C 
ATOM      4  C   UNL d   1     110.332 149.757 197.225  0.00  0.00     0.004 C 
ATOM      5  C   UNL d   1     107.636 149.200 193.755  0.00  0.00     0.000 C 
ATOM      6  C   UNL d   1     109.252 150.764 195.079  0.00  0.00     0.000 C 
ATOM      7  C   UNL d   1     111.651 149.633 198.089  0.00  0.00     0.015 C 
ATOM      8  C   UNL d   1     107.965 147.265 195.296  0.00  0.00     0.000 C 
ATOM      9  C   UNL d   1     110.432 150.791 196.066  0.00  0.00     0.000 C 
ATOM     10  C   UNL d   1     107.114 147.780 194.133  0.00  0.00     0.000 C 
ATOM     11  C   UNL d   1     109.505 147.483 197.983  0.00  0.00     0.025 C 
ATOM     12  C   UNL d   1     110.173 148.754 193.798  0.00  0.00     0.000 C 
ATOM     13  C   UNL d   1     111.543 148.466 199.081  0.00  0.00    -0.047 C 
ATOM     14  C   UNL d   1     111.839 150.954 198.891  0.00  0.00     0.006 C 
ATOM     15  C   UNL d   1     110.572 147.539 199.031  0.00  0.00    -0.035 C 
ATOM     16  C   UNL d   1     112.891 149.395 197.192  0.00  0.00     0.004 C 
ATOM     17  C   UNL d   1     112.599 148.400 200.167  0.00  0.00     0.051 C 
ATOM     18  C   UNL d   1     112.937 150.892 199.953  0.00  0.00     0.030 C 
ATOM     19  C   UNL d   1     112.724 149.726 200.915  0.00  0.00     0.115 C 
ENDROOT
BRANCH   5  20
ATOM     20  C   UNL d   1     107.641 149.418 192.202  0.00  0.00     0.000 C 
ATOM     21  C   UNL d   1     107.038 150.765 191.788  0.00  0.00     0.000 C 
BRANCH  20  22
ATOM     22  C   UNL d   1     106.891 148.241 191.514  0.00  0.00     0.000 C 
BRANCH  22  23
ATOM     23  C   UNL d   1     107.665 147.397 190.490  0.00  0.00     0.000 C 
BRANCH  23  24
ATOM     24  C   UNL d   1     109.017 146.840 190.953  0.00  0.00     0.000 C 
BRANCH  24  25
ATOM     25  C   UNL d   1     109.061 145.319 191.182  0.00  0.00     0.000 C 
ATOM     26  C   UNL d   1     109.364 144.970 192.642  0.00  0.00     0.000 C 
ATOM     27  C   UNL d   1     107.731 144.685 190.764  0.00  0.00     0.000 C 
ENDBRANCH  24  25
ENDBRANCH  23  24
ENDBRANCH  22  23
ENDBRANCH  20  22
ENDBRANCH   5  20
BRANCH  19  28
ATOM     28  O   UNL d   1     113.830 149.645 201.812  0.00  0.00    -0.385 OA
ATOM     29  H   UNL d   1     113.483 149.759 202.715  0.00  0.00     0.210 HD
ENDBRANCH  19  28
TORSDOF 6
ENDMDL
MODEL 14
REMARK VINA RESULT:    -7.410     13.957     15.632
REMARK INTER + INTRA:         -10.529
REMARK INTER:                  -9.593
REMARK INTRA:                  -0.936
REMARK UNBOUND:                -0.737
REMARK  6 active torsions:
REMARK  status: ('A' for Active; 'I' for Inactive)
REMARK    1  A    between atoms: O_1  and  C_22 
REMARK    2  A    between atoms: C_6  and  C_13 
REMARK    3  A    between atoms: C_13  and  C_21 
REMARK    4  A    between atoms: C_21  and  C_24 
REMARK    5  A    between atoms: C_24  and  C_25 
REMARK    6  A    between atoms: C_25  and  C_26 
ROOT
ATOM      1  C   UNL d   1     132.782 118.243 156.055  0.00  0.00     0.000 C 
ATOM      2  C   UNL d   1     134.310 117.983 156.069  0.00  0.00     0.000 C 
ATOM      3  C   UNL d   1     134.739 117.106 157.246  0.00  0.00     0.005 C 
ATOM      4  C   UNL d   1     134.026 115.725 157.163  0.00  0.00     0.004 C 
ATOM      5  C   UNL d   1     132.661 119.271 154.886  0.00  0.00     0.000 C 
ATOM      6  C   UNL d   1     132.148 116.868 155.766  0.00  0.00     0.000 C 
ATOM      7  C   UNL d   1     134.356 114.836 158.429  0.00  0.00     0.015 C 
ATOM      8  C   UNL d   1     134.914 119.370 155.952  0.00  0.00     0.000 C 
ATOM      9  C   UNL d   1     132.506 115.832 156.845  0.00  0.00     0.000 C 
ATOM     10  C   UNL d   1     133.990 120.082 154.963  0.00  0.00     0.000 C 
ATOM     11  C   UNL d   1     136.261 116.915 157.295  0.00  0.00     0.025 C 
ATOM     12  C   UNL d   1     132.275 118.833 157.395  0.00  0.00     0.000 C 
ATOM     13  C   UNL d   1     135.845 114.937 158.790  0.00  0.00    -0.047 C 
ATOM     14  C   UNL d   1     134.023 113.354 158.087  0.00  0.00     0.006 C 
ATOM     15  C   UNL d   1     136.676 115.848 158.259  0.00  0.00    -0.035 C 
ATOM     16  C   UNL d   1     133.525 115.280 159.659  0.00  0.00     0.004 C 
ATOM     17  C   UNL d   1     136.367 113.926 159.793  0.00  0.00     0.051 C 
ATOM     18  C   UNL d   1     134.515 112.346 159.127  0.00  0.00     0.030 C 
ATOM     19  C   UNL d   1     136.011 112.496 159.391  0.00  0.00     0.115 C 
ENDROOT
BRANCH   5  20
ATOM     20  C   UNL d   1     131.413 120.216 154.798  0.00  0.00     0.000 C 
ATOM     21  C   UNL d   1     130.741 120.189 153.420  0.00  0.00     0.000 C 
BRANCH  20  22
ATOM     22  C   UNL d   1     131.835 121.665 155.179  0.00  0.00     0.000 C 
BRANCH  22  23
ATOM     23  C   UNL d   1     131.053 122.829 154.551  0.00  0.00     0.000 C 
BRANCH  23  24
ATOM     24  C   UNL d   1     131.885 124.021 154.062  0.00  0.00     0.000 C 
BRANCH  24  25
ATOM     25  C   UNL d   1     131.805 124.306 152.552  0.00  0.00     0.000 C 
ATOM     26  C   UNL d   1     132.394 125.675 152.197  0.00  0.00     0.000 C 
ATOM     27  C   UNL d   1     132.534 123.211 151.770  0.00  0.00     0.000 C 
ENDBRANCH  24  25
ENDBRANCH  23  24
ENDBRANCH  22  23
ENDBRANCH  20  22
ENDBRANCH   5  20
BRANCH  19  28
ATOM     28  O   UNL d   1     136.395 111.614 160.445  0.00  0.00    -0.385 OA
ATOM     29  H   UNL d   1     135.720 111.683 161.144  0.00  0.00     0.210 HD
ENDBRANCH  19  28
TORSDOF 6
ENDMDL
MODEL 15
REMARK VINA RESULT:    -7.300     35.293     39.490
REMARK INTER + INTRA:         -10.384
REMARK INTER:                  -9.036
REMARK INTRA:                  -1.348
REMARK UNBOUND:                -0.737
REMARK  6 active torsions:
REMARK  status: ('A' for Active; 'I' for Inactive)
REMARK    1  A    between atoms: O_1  and  C_22 
REMARK    2  A    between atoms: C_6  and  C_13 
REMARK    3  A    between atoms: C_13  and  C_21 
REMARK    4  A    between atoms: C_21  and  C_24 
REMARK    5  A    between atoms: C_24  and  C_25 
REMARK    6  A    between atoms: C_25  and  C_26 
ROOT
ATOM      1  C   UNL d   1     125.723 139.336 195.859  0.00  0.00     0.000 C 
ATOM      2  C   UNL d   1     126.505 140.661 195.672  0.00  0.00     0.000 C 
ATOM      3  C   UNL d   1     126.300 141.626 196.841  0.00  0.00     0.005 C 
ATOM      4  C   UNL d   1     126.794 140.968 198.162  0.00  0.00     0.004 C 
ATOM      5  C   UNL d   1     125.973 138.641 194.482  0.00  0.00     0.000 C 
ATOM      6  C   UNL d   1     126.397 138.642 197.058  0.00  0.00     0.000 C 
ATOM      7  C   UNL d   1     126.488 141.892 199.409  0.00  0.00     0.015 C 
ATOM      8  C   UNL d   1     126.107 141.125 194.283  0.00  0.00     0.000 C 
ATOM      9  C   UNL d   1     126.318 139.496 198.335  0.00  0.00     0.000 C 
ATOM     10  C   UNL d   1     126.052 139.827 193.474  0.00  0.00     0.000 C 
ATOM     11  C   UNL d   1     127.018 142.964 196.614  0.00  0.00     0.025 C 
ATOM     12  C   UNL d   1     124.214 139.578 196.115  0.00  0.00     0.000 C 
ATOM     13  C   UNL d   1     126.808 143.359 199.088  0.00  0.00    -0.047 C 
ATOM     14  C   UNL d   1     127.387 141.430 200.593  0.00  0.00     0.006 C 
ATOM     15  C   UNL d   1     127.063 143.808 197.849  0.00  0.00    -0.035 C 
ATOM     16  C   UNL d   1     124.999 141.798 199.825  0.00  0.00     0.004 C 
ATOM     17  C   UNL d   1     126.841 144.316 200.265  0.00  0.00     0.051 C 
ATOM     18  C   UNL d   1     127.379 142.380 201.792  0.00  0.00     0.030 C 
ATOM     19  C   UNL d   1     127.746 143.804 201.384  0.00  0.00     0.115 C 
ENDROOT
BRANCH   5  20
ATOM     20  C   UNL d   1     124.997 137.521 193.980  0.00  0.00     0.000 C 
ATOM     21  C   UNL d   1     125.624 136.122 194.024  0.00  0.00     0.000 C 
BRANCH  20  22
ATOM     22  C   UNL d   1     124.513 137.865 192.542  0.00  0.00     0.000 C 
BRANCH  22  23
ATOM     23  C   UNL d   1     123.019 138.162 192.339  0.00  0.00     0.000 C 
BRANCH  23  24
ATOM     24  C   UNL d   1     122.167 138.255 193.611  0.00  0.00     0.000 C 
BRANCH  24  25
ATOM     25  C   UNL d   1     121.538 136.932 194.083  0.00  0.00     0.000 C 
ATOM     26  C   UNL d   1     121.814 136.665 195.566  0.00  0.00     0.000 C 
ATOM     27  C   UNL d   1     120.028 136.948 193.833  0.00  0.00     0.000 C 
ENDBRANCH  24  25
ENDBRANCH  23  24
ENDBRANCH  22  23
ENDBRANCH  20  22
ENDBRANCH   5  20
BRANCH  19  28
ATOM     28  O   UNL d   1     127.614 144.668 202.511  0.00  0.00    -0.385 OA
ATOM     29  H   UNL d   1     128.380 144.509 203.093  0.00  0.00     0.210 HD
ENDBRANCH  19  28
TORSDOF 6
ENDMDL
MODEL 16
REMARK VINA RESULT:    -7.261     38.380     40.486
REMARK INTER + INTRA:         -10.333
REMARK INTER:                  -8.987
REMARK INTRA:                  -1.346
REMARK UNBOUND:                -0.737
REMARK  6 active torsions:
REMARK  status: ('A' for Active; 'I' for Inactive)
REMARK    1  A    between atoms: O_1  and  C_22 
REMARK    2  A    between atoms: C_6  and  C_13 
REMARK    3  A    between atoms: C_13  and  C_21 
REMARK    4  A    between atoms: C_21  and  C_24 
REMARK    5  A    between atoms: C_24  and  C_25 
REMARK    6  A    between atoms: C_25  and  C_26 
ROOT
ATOM      1  C   UNL d   1     125.574 140.211 197.324  0.00  0.00     0.000 C 
ATOM      2  C   UNL d   1     124.750 139.901 198.600  0.00  0.00     0.000 C 
ATOM      3  C   UNL d   1     123.550 138.999 198.311  0.00  0.00     0.005 C 
ATOM      4  C   UNL d   1     124.039 137.643 197.724  0.00  0.00     0.004 C 
ATOM      5  C   UNL d   1     126.599 141.255 197.873  0.00  0.00     0.000 C 
ATOM      6  C   UNL d   1     126.194 138.861 196.914  0.00  0.00     0.000 C 
ATOM      7  C   UNL d   1     122.817 136.731 197.303  0.00  0.00     0.015 C 
ATOM      8  C   UNL d   1     124.488 141.269 199.203  0.00  0.00     0.000 C 
ATOM      9  C   UNL d   1     125.119 137.803 196.615  0.00  0.00     0.000 C 
ATOM     10  C   UNL d   1     125.800 142.022 198.970  0.00  0.00     0.000 C 
ATOM     11  C   UNL d   1     122.697 138.758 199.565  0.00  0.00     0.025 C 
ATOM     12  C   UNL d   1     124.700 140.804 196.191  0.00  0.00     0.000 C 
ATOM     13  C   UNL d   1     121.712 136.779 198.367  0.00  0.00    -0.047 C 
ATOM     14  C   UNL d   1     123.323 135.264 197.173  0.00  0.00     0.006 C 
ATOM     15  C   UNL d   1     121.690 137.668 199.373  0.00  0.00    -0.035 C 
ATOM     16  C   UNL d   1     122.213 137.188 195.952  0.00  0.00     0.004 C 
ATOM     17  C   UNL d   1     120.612 135.741 198.247  0.00  0.00     0.051 C 
ATOM     18  C   UNL d   1     122.208 134.230 197.008  0.00  0.00     0.030 C 
ATOM     19  C   UNL d   1     121.179 134.328 198.131  0.00  0.00     0.115 C 
ENDROOT
BRANCH   5  20
ATOM     20  C   UNL d   1     127.317 142.241 196.888  0.00  0.00     0.000 C 
ATOM     21  C   UNL d   1     128.425 141.566 196.072  0.00  0.00     0.000 C 
BRANCH  20  22
ATOM     22  C   UNL d   1     127.878 143.452 197.688  0.00  0.00     0.000 C 
BRANCH  22  23
ATOM     23  C   UNL d   1     129.385 143.737 197.596  0.00  0.00     0.000 C 
BRANCH  23  24
ATOM     24  C   UNL d   1     130.255 143.159 198.719  0.00  0.00     0.000 C 
BRANCH  24  25
ATOM     25  C   UNL d   1     129.503 142.334 199.778  0.00  0.00     0.000 C 
ATOM     26  C   UNL d   1     129.776 140.834 199.633  0.00  0.00     0.000 C 
ATOM     27  C   UNL d   1     129.897 142.797 201.183  0.00  0.00     0.000 C 
ENDBRANCH  24  25
ENDBRANCH  23  24
ENDBRANCH  22  23
ENDBRANCH  20  22
ENDBRANCH   5  20
BRANCH  19  28
ATOM     28  O   UNL d   1     120.107 133.423 197.870  0.00  0.00    -0.385 OA
ATOM     29  H   UNL d   1     119.794 133.594 196.963  0.00  0.00     0.210 HD
ENDBRANCH  19  28
TORSDOF 6
ENDMDL
MODEL 17
REMARK VINA RESULT:    -7.008     15.919     18.784
REMARK INTER + INTRA:          -9.999
REMARK INTER:                  -8.479
REMARK INTRA:                  -1.520
REMARK UNBOUND:                -0.737
REMARK  6 active torsions:
REMARK  status: ('A' for Active; 'I' for Inactive)
REMARK    1  A    between atoms: O_1  and  C_22 
REMARK    2  A    between atoms: C_6  and  C_13 
REMARK    3  A    between atoms: C_13  and  C_21 
REMARK    4  A    between atoms: C_21  and  C_24 
REMARK    5  A    between atoms: C_24  and  C_25 
REMARK    6  A    between atoms: C_25  and  C_26 
ROOT
ATOM      1  C   UNL d   1     135.053 115.837 158.215  0.00  0.00     0.000 C 
ATOM      2  C   UNL d   1     133.877 115.267 157.382  0.00  0.00     0.000 C 
ATOM      3  C   UNL d   1     132.874 116.349 156.977  0.00  0.00     0.005 C 
ATOM      4  C   UNL d   1     133.585 117.429 156.112  0.00  0.00     0.004 C 
ATOM      5  C   UNL d   1     135.800 114.526 158.620  0.00  0.00     0.000 C 
ATOM      6  C   UNL d   1     135.831 116.740 157.238  0.00  0.00     0.000 C 
ATOM      7  C   UNL d   1     132.605 118.624 155.775  0.00  0.00     0.015 C 
ATOM      8  C   UNL d   1     133.374 114.102 158.214  0.00  0.00     0.000 C 
ATOM      9  C   UNL d   1     134.956 117.882 156.692  0.00  0.00     0.000 C 
ATOM     10  C   UNL d   1     134.657 113.475 158.766  0.00  0.00     0.000 C 
ATOM     11  C   UNL d   1     131.675 115.764 156.217  0.00  0.00     0.025 C 
ATOM     12  C   UNL d   1     134.564 116.627 159.455  0.00  0.00     0.000 C 
ATOM     13  C   UNL d   1     131.215 118.095 155.394  0.00  0.00    -0.047 C 
ATOM     14  C   UNL d   1     133.189 119.411 154.565  0.00  0.00     0.006 C 
ATOM     15  C   UNL d   1     130.831 116.821 155.576  0.00  0.00    -0.035 C 
ATOM     16  C   UNL d   1     132.448 119.581 156.983  0.00  0.00     0.004 C 
ATOM     17  C   UNL d   1     130.259 119.094 154.770  0.00  0.00     0.051 C 
ATOM     18  C   UNL d   1     132.234 120.447 153.971  0.00  0.00     0.030 C 
ATOM     19  C   UNL d   1     130.895 119.822 153.587  0.00  0.00     0.115 C 
ENDROOT
BRANCH   5  20
ATOM     20  C   UNL d   1     136.752 114.519 159.865  0.00  0.00     0.000 C 
ATOM     21  C   UNL d   1     138.229 114.681 159.486  0.00  0.00     0.000 C 
BRANCH  20  22
ATOM     22  C   UNL d   1     136.530 113.210 160.677  0.00  0.00     0.000 C 
BRANCH  22  23
ATOM     23  C   UNL d   1     137.562 112.083 160.519  0.00  0.00     0.000 C 
BRANCH  23  24
ATOM     24  C   UNL d   1     137.195 110.960 159.542  0.00  0.00     0.000 C 
BRANCH  24  25
ATOM     25  C   UNL d   1     138.093 110.849 158.296  0.00  0.00     0.000 C 
ATOM     26  C   UNL d   1     137.554 111.679 157.128  0.00  0.00     0.000 C 
ATOM     27  C   UNL d   1     139.518 111.294 158.633  0.00  0.00     0.000 C 
ENDBRANCH  24  25
ENDBRANCH  23  24
ENDBRANCH  22  23
ENDBRANCH  20  22
ENDBRANCH   5  20
BRANCH  19  28
ATOM     28  O   UNL d   1     130.005 120.846 153.146  0.00  0.00    -0.385 OA
ATOM     29  H   UNL d   1     129.109 120.462 153.117  0.00  0.00     0.210 HD
ENDBRANCH  19  28
TORSDOF 6
ENDMDL
MODEL 18
REMARK VINA RESULT:    -6.985     35.066     39.028
REMARK INTER + INTRA:          -9.968
REMARK INTER:                  -8.535
REMARK INTRA:                  -1.433
REMARK UNBOUND:                -0.737
REMARK  6 active torsions:
REMARK  status: ('A' for Active; 'I' for Inactive)
REMARK    1  A    between atoms: O_1  and  C_22 
REMARK    2  A    between atoms: C_6  and  C_13 
REMARK    3  A    between atoms: C_13  and  C_21 
REMARK    4  A    between atoms: C_21  and  C_24 
REMARK    5  A    between atoms: C_24  and  C_25 
REMARK    6  A    between atoms: C_25  and  C_26 
ROOT
ATOM      1  C   UNL d   1     105.617 146.849 184.930  0.00  0.00     0.000 C 
ATOM      2  C   UNL d   1     105.251 145.695 185.899  0.00  0.00     0.000 C 
ATOM      3  C   UNL d   1     104.129 146.082 186.863  0.00  0.00     0.005 C 
ATOM      4  C   UNL d   1     102.847 146.449 186.061  0.00  0.00     0.004 C 
ATOM      5  C   UNL d   1     106.865 146.249 184.205  0.00  0.00     0.000 C 
ATOM      6  C   UNL d   1     104.377 147.021 184.032  0.00  0.00     0.000 C 
ATOM      7  C   UNL d   1     101.702 146.968 187.021  0.00  0.00     0.015 C 
ATOM      8  C   UNL d   1     106.587 145.278 186.487  0.00  0.00     0.000 C 
ATOM      9  C   UNL d   1     103.124 147.383 184.847  0.00  0.00     0.000 C 
ATOM     10  C   UNL d   1     107.547 145.372 185.298  0.00  0.00     0.000 C 
ATOM     11  C   UNL d   1     103.824 144.962 187.868  0.00  0.00     0.025 C 
ATOM     12  C   UNL d   1     105.964 148.159 185.682  0.00  0.00     0.000 C 
ATOM     13  C   UNL d   1     101.622 146.102 188.287  0.00  0.00    -0.047 C 
ATOM     14  C   UNL d   1     100.346 146.872 186.263  0.00  0.00     0.006 C 
ATOM     15  C   UNL d   1     102.559 145.204 188.631  0.00  0.00    -0.035 C 
ATOM     16  C   UNL d   1     101.950 148.435 187.450  0.00  0.00     0.004 C 
ATOM     17  C   UNL d   1     100.396 146.293 189.160  0.00  0.00     0.051 C 
ATOM     18  C   UNL d   1      99.118 147.110 187.143  0.00  0.00     0.030 C 
ATOM     19  C   UNL d   1      99.104 146.179 188.353  0.00  0.00     0.115 C 
ENDROOT
BRANCH   5  20
ATOM     20  C   UNL d   1     107.895 147.199 183.502  0.00  0.00     0.000 C 
ATOM     21  C   UNL d   1     107.700 147.270 181.983  0.00  0.00     0.000 C 
BRANCH  20  22
ATOM     22  C   UNL d   1     109.341 146.743 183.853  0.00  0.00     0.000 C 
BRANCH  22  23
ATOM     23  C   UNL d   1     110.239 147.728 184.617  0.00  0.00     0.000 C 
BRANCH  23  24
ATOM     24  C   UNL d   1     109.548 148.598 185.674  0.00  0.00     0.000 C 
BRANCH  24  25
ATOM     25  C   UNL d   1     109.783 150.113 185.538  0.00  0.00     0.000 C 
ATOM     26  C   UNL d   1     111.139 150.426 184.899  0.00  0.00     0.000 C 
ATOM     27  C   UNL d   1     108.663 150.748 184.710  0.00  0.00     0.000 C 
ENDBRANCH  24  25
ENDBRANCH  23  24
ENDBRANCH  22  23
ENDBRANCH  20  22
ENDBRANCH   5  20
BRANCH  19  28
ATOM     28  O   UNL d   1      98.005 146.517 189.197  0.00  0.00    -0.385 OA
ATOM     29  H   UNL d   1      98.240 146.248 190.104  0.00  0.00     0.210 HD
ENDBRANCH  19  28
TORSDOF 6
ENDMDL
MODEL 19
REMARK VINA RESULT:    -6.971     32.837     37.963
REMARK INTER + INTRA:          -9.950
REMARK INTER:                  -8.922
REMARK INTRA:                  -1.028
REMARK UNBOUND:                -0.737
REMARK  6 active torsions:
REMARK  status: ('A' for Active; 'I' for Inactive)
REMARK    1  A    between atoms: O_1  and  C_22 
REMARK    2  A    between atoms: C_6  and  C_13 
REMARK    3  A    between atoms: C_13  and  C_21 
REMARK    4  A    between atoms: C_21  and  C_24 
REMARK    5  A    between atoms: C_24  and  C_25 
REMARK    6  A    between atoms: C_25  and  C_26 
ROOT
ATOM      1  C   UNL d   1     107.791 146.480 186.463  0.00  0.00     0.000 C 
ATOM      2  C   UNL d   1     106.653 145.965 185.544  0.00  0.00     0.000 C 
ATOM      3  C   UNL d   1     106.630 146.683 184.194  0.00  0.00     0.005 C 
ATOM      4  C   UNL d   1     107.977 146.453 183.451  0.00  0.00     0.004 C 
ATOM      5  C   UNL d   1     107.475 145.718 187.790  0.00  0.00     0.000 C 
ATOM      6  C   UNL d   1     109.093 146.039 185.768  0.00  0.00     0.000 C 
ATOM      7  C   UNL d   1     108.033 147.278 182.102  0.00  0.00     0.015 C 
ATOM      8  C   UNL d   1     105.416 146.046 186.419  0.00  0.00     0.000 C 
ATOM      9  C   UNL d   1     109.226 146.645 184.360  0.00  0.00     0.000 C 
ATOM     10  C   UNL d   1     105.920 145.606 187.796  0.00  0.00     0.000 C 
ATOM     11  C   UNL d   1     105.455 146.221 183.319  0.00  0.00     0.025 C 
ATOM     12  C   UNL d   1     107.739 148.016 186.656  0.00  0.00     0.000 C 
ATOM     13  C   UNL d   1     106.694 147.189 181.356  0.00  0.00    -0.047 C 
ATOM     14  C   UNL d   1     109.148 146.670 181.202  0.00  0.00     0.006 C 
ATOM     15  C   UNL d   1     105.571 146.696 181.905  0.00  0.00    -0.035 C 
ATOM     16  C   UNL d   1     108.344 148.771 182.369  0.00  0.00     0.004 C 
ATOM     17  C   UNL d   1     106.684 147.683 179.922  0.00  0.00     0.051 C 
ATOM     18  C   UNL d   1     109.158 147.207 179.769  0.00  0.00     0.030 C 
ATOM     19  C   UNL d   1     107.798 147.042 179.097  0.00  0.00     0.115 C 
ENDROOT
BRANCH   5  20
ATOM     20  C   UNL d   1     108.018 146.263 189.156  0.00  0.00     0.000 C 
ATOM     21  C   UNL d   1     109.156 145.408 189.728  0.00  0.00     0.000 C 
BRANCH  20  22
ATOM     22  C   UNL d   1     106.844 146.372 190.172  0.00  0.00     0.000 C 
BRANCH  22  23
ATOM     23  C   UNL d   1     106.907 147.490 191.223  0.00  0.00     0.000 C 
BRANCH  23  24
ATOM     24  C   UNL d   1     107.535 147.119 192.572  0.00  0.00     0.000 C 
BRANCH  24  25
ATOM     25  C   UNL d   1     108.624 148.082 193.081  0.00  0.00     0.000 C 
ATOM     26  C   UNL d   1     110.008 147.719 192.534  0.00  0.00     0.000 C 
ATOM     27  C   UNL d   1     108.276 149.522 192.693  0.00  0.00     0.000 C 
ENDBRANCH  24  25
ENDBRANCH  23  24
ENDBRANCH  22  23
ENDBRANCH  20  22
ENDBRANCH   5  20
BRANCH  19  28
ATOM     28  O   UNL d   1     107.829 147.657 177.811  0.00  0.00    -0.385 OA
ATOM     29  H   UNL d   1     107.152 148.359 177.806  0.00  0.00     0.210 HD
ENDBRANCH  19  28
TORSDOF 6
ENDMDL
MODEL 20
REMARK VINA RESULT:    -6.766     32.626     37.583
REMARK INTER + INTRA:          -9.679
REMARK INTER:                  -8.035
REMARK INTRA:                  -1.644
REMARK UNBOUND:                -0.737
REMARK  6 active torsions:
REMARK  status: ('A' for Active; 'I' for Inactive)
REMARK    1  A    between atoms: O_1  and  C_22 
REMARK    2  A    between atoms: C_6  and  C_13 
REMARK    3  A    between atoms: C_13  and  C_21 
REMARK    4  A    between atoms: C_21  and  C_24 
REMARK    5  A    between atoms: C_24  and  C_25 
REMARK    6  A    between atoms: C_25  and  C_26 
ROOT
ATOM      1  C   UNL d   1     107.746 146.601 186.268  0.00  0.00     0.000 C 
ATOM      2  C   UNL d   1     106.635 146.081 185.320  0.00  0.00     0.000 C 
ATOM      3  C   UNL d   1     106.702 146.730 183.937  0.00  0.00     0.005 C 
ATOM      4  C   UNL d   1     108.074 146.416 183.273  0.00  0.00     0.004 C 
ATOM      5  C   UNL d   1     107.339 145.918 187.613  0.00  0.00     0.000 C 
ATOM      6  C   UNL d   1     109.063 146.080 185.659  0.00  0.00     0.000 C 
ATOM      7  C   UNL d   1     108.224 147.170 181.890  0.00  0.00     0.015 C 
ATOM      8  C   UNL d   1     105.362 146.249 186.128  0.00  0.00     0.000 C 
ATOM      9  C   UNL d   1     109.284 146.610 184.232  0.00  0.00     0.000 C 
ATOM     10  C   UNL d   1     105.783 145.861 187.548  0.00  0.00     0.000 C 
ATOM     11  C   UNL d   1     105.554 146.266 183.029  0.00  0.00     0.025 C 
ATOM     12  C   UNL d   1     107.743 148.146 186.384  0.00  0.00     0.000 C 
ATOM     13  C   UNL d   1     106.919 147.091 181.085  0.00  0.00    -0.047 C 
ATOM     14  C   UNL d   1     109.357 146.479 181.076  0.00  0.00     0.006 C 
ATOM     15  C   UNL d   1     105.754 146.666 181.601  0.00  0.00    -0.035 C 
ATOM     16  C   UNL d   1     108.578 148.663 182.100  0.00  0.00     0.004 C 
ATOM     17  C   UNL d   1     106.996 147.512 179.630  0.00  0.00     0.051 C 
ATOM     18  C   UNL d   1     109.455 146.943 179.622  0.00  0.00     0.030 C 
ATOM     19  C   UNL d   1     108.123 146.791 178.892  0.00  0.00     0.115 C 
ENDROOT
BRANCH   5  20
ATOM     20  C   UNL d   1     107.838 146.511 188.976  0.00  0.00     0.000 C 
ATOM     21  C   UNL d   1     108.965 145.686 189.608  0.00  0.00     0.000 C 
BRANCH  20  22
ATOM     22  C   UNL d   1     106.634 146.643 189.953  0.00  0.00     0.000 C 
BRANCH  22  23
ATOM     23  C   UNL d   1     106.363 148.020 190.577  0.00  0.00     0.000 C 
BRANCH  23  24
ATOM     24  C   UNL d   1     105.214 148.830 189.963  0.00  0.00     0.000 C 
BRANCH  24  25
ATOM     25  C   UNL d   1     105.476 149.379 188.549  0.00  0.00     0.000 C 
ATOM     26  C   UNL d   1     104.208 149.374 187.690  0.00  0.00     0.000 C 
ATOM     27  C   UNL d   1     106.038 150.801 188.633  0.00  0.00     0.000 C 
ENDBRANCH  24  25
ENDBRANCH  23  24
ENDBRANCH  22  23
ENDBRANCH  20  22
ENDBRANCH   5  20
BRANCH  19  28
ATOM     28  O   UNL d   1     108.238 147.341 177.581  0.00  0.00    -0.385 OA
ATOM     29  H   UNL d   1     108.765 148.157 177.651  0.00  0.00     0.210 HD
ENDBRANCH  19  28
TORSDOF 6
ENDMDL
