REMARK  6 active torsions:
REMARK  status: ('A' for Active; 'I' for Inactive)
REMARK    1  A    between atoms: O_1  and  C_22 
REMARK    2  A    between atoms: C_6  and  C_13 
REMARK    3  A    between atoms: C_13  and  C_21 
REMARK    4  A    between atoms: C_21  and  C_24 
REMARK    5  A    between atoms: C_24  and  C_25 
REMARK    6  A    between atoms: C_25  and  C_26 
ROOT
ATOM      1  C   UNL d   1     133.321 126.424 151.512  0.00  0.00     0.000 C 
ATOM      2  C   UNL d   1     133.644 125.049 150.874  0.00  0.00     0.000 C 
ATOM      3  C   UNL d   1     133.932 125.157 149.376  0.00  0.00     0.005 C 
ATOM      4  C   UNL d   1     135.158 126.086 149.141  0.00  0.00     0.004 C 
ATOM      5  C   UNL d   1     132.912 125.998 152.958  0.00  0.00     0.000 C 
ATOM      6  C   UNL d   1     134.637 127.221 151.427  0.00  0.00     0.000 C 
ATOM      7  C   UNL d   1     135.412 126.315 147.596  0.00  0.00     0.015 C 
ATOM      8  C   UNL d   1     132.494 124.164 151.319  0.00  0.00     0.000 C 
ATOM      9  C   UNL d   1     135.107 127.400 149.973  0.00  0.00     0.000 C 
ATOM     10  C   UNL d   1     132.238 124.607 152.761  0.00  0.00     0.000 C 
ATOM     11  C   UNL d   1     134.178 123.783 148.738  0.00  0.00     0.025 C 
ATOM     12  C   UNL d   1     132.166 127.153 150.780  0.00  0.00     0.000 C 
ATOM     13  C   UNL d   1     135.257 125.000 146.820  0.00  0.00    -0.047 C 
ATOM     14  C   UNL d   1     136.867 126.836 147.411  0.00  0.00     0.006 C 
ATOM     15  C   UNL d   1     134.730 123.884 147.351  0.00  0.00    -0.035 C 
ATOM     16  C   UNL d   1     134.417 127.347 147.010  0.00  0.00     0.004 C 
ATOM     17  C   UNL d   1     135.748 124.999 145.385  0.00  0.00     0.051 C 
ATOM     18  C   UNL d   1     137.338 126.874 145.956  0.00  0.00     0.030 C 
ATOM     19  C   UNL d   1     137.182 125.515 145.279  0.00  0.00     0.115 C 
ENDROOT
BRANCH   5  20
ATOM     20  C   UNL d   1     132.027 126.949 153.835  0.00  0.00     0.000 C 
ATOM     21  C   UNL d   1     132.657 127.258 155.199  0.00  0.00     0.000 C 
BRANCH  20  22
ATOM     22  C   UNL d   1     130.612 126.324 154.008  0.00  0.00     0.000 C 
BRANCH  22  23
ATOM     23  C   UNL d   1     129.491 126.818 153.082  0.00  0.00     0.000 C 
BRANCH  23  24
ATOM     24  C   UNL d   1     128.792 125.749 152.233  0.00  0.00     0.000 C 
BRANCH  24  25
ATOM     25  C   UNL d   1     127.260 125.689 152.378  0.00  0.00     0.000 C 
ATOM     26  C   UNL d   1     126.730 124.259 152.239  0.00  0.00     0.000 C 
ATOM     27  C   UNL d   1     126.837 126.268 153.730  0.00  0.00     0.000 C 
ENDBRANCH  24  25
ENDBRANCH  23  24
ENDBRANCH  22  23
ENDBRANCH  20  22
ENDBRANCH   5  20
BRANCH  19  28
ATOM     28  O   UNL d   1     137.527 125.631 143.900  0.00  0.00    -0.385 OA
ATOM     29  H   UNL d   1     136.939 125.035 143.400  0.00  0.00     0.210 HD
ENDBRANCH  19  28
TORSDOF 6
