REMARK  6 active torsions:
REMARK  status: ('A' for Active; 'I' for Inactive)
REMARK    1  A    between atoms: O_1  and  C_22 
REMARK    2  A    between atoms: C_6  and  C_13 
REMARK    3  A    between atoms: C_13  and  C_21 
REMARK    4  A    between atoms: C_21  and  C_24 
REMARK    5  A    between atoms: C_24  and  C_25 
REMARK    6  A    between atoms: C_25  and  C_26 
ROOT
ATOM      1  C   UNL d   1     137.405 142.042 184.604  0.00  0.00     0.000 C 
ATOM      2  C   UNL d   1     136.880 140.598 184.807  0.00  0.00     0.000 C 
ATOM      3  C   UNL d   1     135.879 140.186 183.726  0.00  0.00     0.005 C 
ATOM      4  C   UNL d   1     136.558 140.249 182.328  0.00  0.00     0.004 C 
ATOM      5  C   UNL d   1     138.245 142.244 185.905  0.00  0.00     0.000 C 
ATOM      6  C   UNL d   1     138.237 141.983 183.308  0.00  0.00     0.000 C 
ATOM      7  C   UNL d   1     135.519 139.943 181.175  0.00  0.00     0.015 C 
ATOM      8  C   UNL d   1     136.418 140.580 186.253  0.00  0.00     0.000 C 
ATOM      9  C   UNL d   1     137.389 141.545 182.101  0.00  0.00     0.000 C 
ATOM     10  C   UNL d   1     137.478 141.413 186.978  0.00  0.00     0.000 C 
ATOM     11  C   UNL d   1     135.308 138.783 183.977  0.00  0.00     0.025 C 
ATOM     12  C   UNL d   1     136.254 143.074 184.496  0.00  0.00     0.000 C 
ATOM     13  C   UNL d   1     134.611 138.767 181.561  0.00  0.00    -0.047 C 
ATOM     14  C   UNL d   1     136.310 139.563 179.890  0.00  0.00     0.006 C 
ATOM     15  C   UNL d   1     134.550 138.254 182.800  0.00  0.00    -0.035 C 
ATOM     16  C   UNL d   1     134.625 141.174 180.884  0.00  0.00     0.004 C 
ATOM     17  C   UNL d   1     133.764 138.174 180.451  0.00  0.00     0.051 C 
ATOM     18  C   UNL d   1     135.441 139.008 178.760  0.00  0.00     0.030 C 
ATOM     19  C   UNL d   1     134.604 137.819 179.226  0.00  0.00     0.115 C 
ENDROOT
BRANCH   5  20
ATOM     20  C   UNL d   1     138.563 143.691 186.416  0.00  0.00     0.000 C 
ATOM     21  C   UNL d   1     139.004 144.636 185.292  0.00  0.00     0.000 C 
BRANCH  20  22
ATOM     22  C   UNL d   1     139.645 143.618 187.532  0.00  0.00     0.000 C 
BRANCH  22  23
ATOM     23  C   UNL d   1     140.628 144.792 187.657  0.00  0.00     0.000 C 
BRANCH  23  24
ATOM     24  C   UNL d   1     142.117 144.448 187.522  0.00  0.00     0.000 C 
BRANCH  24  25
ATOM     25  C   UNL d   1     142.629 144.289 186.079  0.00  0.00     0.000 C 
ATOM     26  C   UNL d   1     144.156 144.392 186.000  0.00  0.00     0.000 C 
ATOM     27  C   UNL d   1     142.171 142.947 185.502  0.00  0.00     0.000 C 
ENDBRANCH  24  25
ENDBRANCH  23  24
ENDBRANCH  22  23
ENDBRANCH  20  22
ENDBRANCH   5  20
BRANCH  19  28
ATOM     28  O   UNL d   1     133.733 137.413 178.173  0.00  0.00    -0.385 OA
ATOM     29  H   UNL d   1     132.820 137.463 178.513  0.00  0.00     0.210 HD
ENDBRANCH  19  28
TORSDOF 6
