REMARK  6 active torsions:
REMARK  status: ('A' for Active; 'I' for Inactive)
REMARK    1  A    between atoms: O_1  and  C_22 
REMARK    2  A    between atoms: C_6  and  C_13 
REMARK    3  A    between atoms: C_13  and  C_21 
REMARK    4  A    between atoms: C_21  and  C_24 
REMARK    5  A    between atoms: C_24  and  C_25 
REMARK    6  A    between atoms: C_25  and  C_26 
ROOT
ATOM      1  C   UNL d   1     127.679 123.901 171.664  0.00  0.00     0.000 C 
ATOM      2  C   UNL d   1     128.052 125.114 172.555  0.00  0.00     0.000 C 
ATOM      3  C   UNL d   1     127.357 126.400 172.104  0.00  0.00     0.005 C 
ATOM      4  C   UNL d   1     125.814 126.219 172.175  0.00  0.00     0.004 C 
ATOM      5  C   UNL d   1     128.635 122.804 172.232  0.00  0.00     0.000 C 
ATOM      6  C   UNL d   1     126.183 123.651 171.939  0.00  0.00     0.000 C 
ATOM      7  C   UNL d   1     125.064 127.489 171.604  0.00  0.00     0.015 C 
ATOM      8  C   UNL d   1     129.569 125.091 172.581  0.00  0.00     0.000 C 
ATOM      9  C   UNL d   1     125.320 124.871 171.573  0.00  0.00     0.000 C 
ATOM     10  C   UNL d   1     129.904 123.600 172.661  0.00  0.00     0.000 C 
ATOM     11  C   UNL d   1     127.790 127.610 172.944  0.00  0.00     0.025 C 
ATOM     12  C   UNL d   1     127.944 124.173 170.162  0.00  0.00     0.000 C 
ATOM     13  C   UNL d   1     125.732 128.781 172.097  0.00  0.00    -0.047 C 
ATOM     14  C   UNL d   1     123.593 127.461 172.115  0.00  0.00     0.006 C 
ATOM     15  C   UNL d   1     126.927 128.810 172.708  0.00  0.00    -0.035 C 
ATOM     16  C   UNL d   1     125.071 127.497 170.056  0.00  0.00     0.004 C 
ATOM     17  C   UNL d   1     124.962 130.068 171.873  0.00  0.00     0.051 C 
ATOM     18  C   UNL d   1     122.812 128.747 171.845  0.00  0.00     0.030 C 
ATOM     19  C   UNL d   1     123.533 129.971 172.403  0.00  0.00     0.115 C 
ENDROOT
BRANCH   5  20
ATOM     20  C   UNL d   1     129.005 121.557 171.358  0.00  0.00     0.000 C 
ATOM     21  C   UNL d   1     128.590 120.231 172.006  0.00  0.00     0.000 C 
BRANCH  20  22
ATOM     22  C   UNL d   1     130.532 121.571 171.057  0.00  0.00     0.000 C 
BRANCH  22  23
ATOM     23  C   UNL d   1     131.012 122.341 169.818  0.00  0.00     0.000 C 
BRANCH  23  24
ATOM     24  C   UNL d   1     131.780 121.528 168.768  0.00  0.00     0.000 C 
BRANCH  24  25
ATOM     25  C   UNL d   1     133.299 121.774 168.724  0.00  0.00     0.000 C 
ATOM     26  C   UNL d   1     133.724 122.491 167.439  0.00  0.00     0.000 C 
ATOM     27  C   UNL d   1     133.735 122.591 169.942  0.00  0.00     0.000 C 
ENDBRANCH  24  25
ENDBRANCH  23  24
ENDBRANCH  22  23
ENDBRANCH  20  22
ENDBRANCH   5  20
BRANCH  19  28
ATOM     28  O   UNL d   1     122.823 131.150 172.027  0.00  0.00    -0.385 OA
ATOM     29  H   UNL d   1     121.953 131.119 172.465  0.00  0.00     0.210 HD
ENDBRANCH  19  28
TORSDOF 6
