REMARK  6 active torsions:
REMARK  status: ('A' for Active; 'I' for Inactive)
REMARK    1  A    between atoms: O_1  and  C_22 
REMARK    2  A    between atoms: C_6  and  C_13 
REMARK    3  A    between atoms: C_13  and  C_21 
REMARK    4  A    between atoms: C_21  and  C_24 
REMARK    5  A    between atoms: C_24  and  C_25 
REMARK    6  A    between atoms: C_25  and  C_26 
ROOT
ATOM      1  C   UNL d   1     110.557 117.190 168.559  0.00  0.00     0.000 C 
ATOM      2  C   UNL d   1     111.002 116.567 167.212  0.00  0.00     0.000 C 
ATOM      3  C   UNL d   1     110.237 115.283 166.885  0.00  0.00     0.005 C 
ATOM      4  C   UNL d   1     108.715 115.588 166.785  0.00  0.00     0.004 C 
ATOM      5  C   UNL d   1     111.591 118.351 168.712  0.00  0.00     0.000 C 
ATOM      6  C   UNL d   1     109.106 117.653 168.323  0.00  0.00     0.000 C 
ATOM      7  C   UNL d   1     107.882 114.261 166.564  0.00  0.00     0.015 C 
ATOM      8  C   UNL d   1     112.513 116.489 167.330  0.00  0.00     0.000 C 
ATOM      9  C   UNL d   1     108.184 116.481 167.943  0.00  0.00     0.000 C 
ATOM     10  C   UNL d   1     112.885 117.789 168.048  0.00  0.00     0.000 C 
ATOM     11  C   UNL d   1     110.736 114.632 165.587  0.00  0.00     0.025 C 
ATOM     12  C   UNL d   1     110.649 116.181 169.731  0.00  0.00     0.000 C 
ATOM     13  C   UNL d   1     108.575 113.348 165.543  0.00  0.00    -0.047 C 
ATOM     14  C   UNL d   1     106.478 114.650 166.016  0.00  0.00     0.006 C 
ATOM     15  C   UNL d   1     109.829 113.543 165.106  0.00  0.00    -0.035 C 
ATOM     16  C   UNL d   1     107.717 113.475 167.889  0.00  0.00     0.004 C 
ATOM     17  C   UNL d   1     107.759 112.183 165.015  0.00  0.00     0.051 C 
ATOM     18  C   UNL d   1     105.646 113.463 165.527  0.00  0.00     0.030 C 
ATOM     19  C   UNL d   1     106.400 112.637 164.488  0.00  0.00     0.115 C 
ENDROOT
BRANCH   5  20
ATOM     20  C   UNL d   1     111.886 118.958 170.126  0.00  0.00     0.000 C 
ATOM     21  C   UNL d   1     112.516 117.944 171.090  0.00  0.00     0.000 C 
BRANCH  20  22
ATOM     22  C   UNL d   1     110.573 119.544 170.721  0.00  0.00     0.000 C 
BRANCH  22  23
ATOM     23  C   UNL d   1     110.665 120.864 171.501  0.00  0.00     0.000 C 
BRANCH  23  24
ATOM     24  C   UNL d   1     110.729 122.146 170.662  0.00  0.00     0.000 C 
BRANCH  24  25
ATOM     25  C   UNL d   1     112.144 122.686 170.388  0.00  0.00     0.000 C 
ATOM     26  C   UNL d   1     112.350 124.079 170.990  0.00  0.00     0.000 C 
ATOM     27  C   UNL d   1     113.193 121.721 170.947  0.00  0.00     0.000 C 
ENDBRANCH  24  25
ENDBRANCH  23  24
ENDBRANCH  22  23
ENDBRANCH  20  22
ENDBRANCH   5  20
BRANCH  19  28
ATOM     28  O   UNL d   1     105.630 111.485 164.150  0.00  0.00    -0.385 OA
ATOM     29  H   UNL d   1     105.395 111.036 164.983  0.00  0.00     0.210 HD
ENDBRANCH  19  28
TORSDOF 6
