REMARK  6 active torsions:
REMARK  status: ('A' for Active; 'I' for Inactive)
REMARK    1  A    between atoms: O_1  and  C_22 
REMARK    2  A    between atoms: C_6  and  C_13 
REMARK    3  A    between atoms: C_13  and  C_21 
REMARK    4  A    between atoms: C_21  and  C_24 
REMARK    5  A    between atoms: C_24  and  C_25 
REMARK    6  A    between atoms: C_25  and  C_26 
ROOT
ATOM      1  C   UNL d   1     126.844 129.498 161.939  0.00  0.00     0.000 C 
ATOM      2  C   UNL d   1     128.258 128.917 161.682  0.00  0.00     0.000 C 
ATOM      3  C   UNL d   1     128.634 128.937 160.199  0.00  0.00     0.005 C 
ATOM      4  C   UNL d   1     128.623 130.401 159.673  0.00  0.00     0.004 C 
ATOM      5  C   UNL d   1     126.667 129.200 163.462  0.00  0.00     0.000 C 
ATOM      6  C   UNL d   1     126.961 130.995 161.589  0.00  0.00     0.000 C 
ATOM      7  C   UNL d   1     128.891 130.449 158.114  0.00  0.00     0.015 C 
ATOM      8  C   UNL d   1     128.234 127.577 162.395  0.00  0.00     0.000 C 
ATOM      9  C   UNL d   1     127.372 131.211 160.123  0.00  0.00     0.000 C 
ATOM     10  C   UNL d   1     127.445 127.866 163.675  0.00  0.00     0.000 C 
ATOM     11  C   UNL d   1     130.003 128.291 159.945  0.00  0.00     0.025 C 
ATOM     12  C   UNL d   1     125.758 128.797 161.086  0.00  0.00     0.000 C 
ATOM     13  C   UNL d   1     130.016 129.478 157.728  0.00  0.00    -0.047 C 
ATOM     14  C   UNL d   1     129.327 131.894 157.736  0.00  0.00     0.006 C 
ATOM     15  C   UNL d   1     130.510 128.546 158.560  0.00  0.00    -0.035 C 
ATOM     16  C   UNL d   1     127.622 130.067 157.314  0.00  0.00     0.004 C 
ATOM     17  C   UNL d   1     130.580 129.620 156.327  0.00  0.00     0.051 C 
ATOM     18  C   UNL d   1     129.853 132.036 156.307  0.00  0.00     0.030 C 
ATOM     19  C   UNL d   1     130.992 131.059 156.027  0.00  0.00     0.115 C 
ENDROOT
BRANCH   5  20
ATOM     20  C   UNL d   1     125.231 129.136 164.087  0.00  0.00     0.000 C 
ATOM     21  C   UNL d   1     124.589 127.749 163.961  0.00  0.00     0.000 C 
BRANCH  20  22
ATOM     22  C   UNL d   1     124.333 130.223 163.429  0.00  0.00     0.000 C 
BRANCH  22  23
ATOM     23  C   UNL d   1     124.657 131.696 163.722  0.00  0.00     0.000 C 
BRANCH  23  24
ATOM     24  C   UNL d   1     123.493 132.686 163.592  0.00  0.00     0.000 C 
BRANCH  24  25
ATOM     25  C   UNL d   1     123.702 133.821 162.574  0.00  0.00     0.000 C 
ATOM     26  C   UNL d   1     123.633 135.201 163.235  0.00  0.00     0.000 C 
ATOM     27  C   UNL d   1     125.049 133.652 161.867  0.00  0.00     0.000 C 
ENDBRANCH  24  25
ENDBRANCH  23  24
ENDBRANCH  22  23
ENDBRANCH  20  22
ENDBRANCH   5  20
BRANCH  19  28
ATOM     28  O   UNL d   1     131.369 131.153 154.655  0.00  0.00    -0.385 OA
ATOM     29  H   UNL d   1     131.890 130.358 154.440  0.00  0.00     0.210 HD
ENDBRANCH  19  28
TORSDOF 6
