MODEL 1
REMARK VINA RESULT:    -9.290      0.000      0.000
REMARK INTER + INTRA:         -13.012
REMARK INTER:                 -12.277
REMARK INTRA:                  -0.735
REMARK UNBOUND:                -0.735
REMARK  6 active torsions:
REMARK  status: ('A' for Active; 'I' for Inactive)
REMARK    1  A    between atoms: O_1  and  C_22 
REMARK    2  A    between atoms: C_6  and  C_13 
REMARK    3  A    between atoms: C_13  and  C_21 
REMARK    4  A    between atoms: C_21  and  C_24 
REMARK    5  A    between atoms: C_24  and  C_25 
REMARK    6  A    between atoms: C_25  and  C_26 
ROOT
ATOM      1  C   UNL d   1     127.956 131.149 158.628  0.00  0.00     0.000 C 
ATOM      2  C   UNL d   1     127.565 132.224 159.673  0.00  0.00     0.000 C 
ATOM      3  C   UNL d   1     126.672 131.661 160.780  0.00  0.00     0.005 C 
ATOM      4  C   UNL d   1     127.418 130.521 161.531  0.00  0.00     0.004 C 
ATOM      5  C   UNL d   1     128.698 132.018 157.563  0.00  0.00     0.000 C 
ATOM      6  C   UNL d   1     128.860 130.162 159.391  0.00  0.00     0.000 C 
ATOM      7  C   UNL d   1     126.480 129.835 162.604  0.00  0.00     0.015 C 
ATOM      8  C   UNL d   1     127.028 133.368 158.834  0.00  0.00     0.000 C 
ATOM      9  C   UNL d   1     128.129 129.514 160.580  0.00  0.00     0.000 C 
ATOM     10  C   UNL d   1     127.958 133.389 157.618  0.00  0.00     0.000 C 
ATOM     11  C   UNL d   1     126.229 132.747 161.769  0.00  0.00     0.025 C 
ATOM     12  C   UNL d   1     126.717 130.438 158.027  0.00  0.00     0.000 C 
ATOM     13  C   UNL d   1     125.672 130.891 163.372  0.00  0.00    -0.047 C 
ATOM     14  C   UNL d   1     127.376 129.059 163.614  0.00  0.00     0.006 C 
ATOM     15  C   UNL d   1     125.593 132.179 162.999  0.00  0.00    -0.035 C 
ATOM     16  C   UNL d   1     125.487 128.853 161.937  0.00  0.00     0.004 C 
ATOM     17  C   UNL d   1     124.951 130.416 164.619  0.00  0.00     0.051 C 
ATOM     18  C   UNL d   1     126.630 128.546 164.847  0.00  0.00     0.030 C 
ATOM     19  C   UNL d   1     125.890 129.671 165.565  0.00  0.00     0.115 C 
ENDROOT
BRANCH   5  20
ATOM     20  C   UNL d   1     128.843 131.501 156.091  0.00  0.00     0.000 C 
ATOM     21  C   UNL d   1     130.294 131.176 155.714  0.00  0.00     0.000 C 
BRANCH  20  22
ATOM     22  C   UNL d   1     128.239 132.550 155.113  0.00  0.00     0.000 C 
BRANCH  22  23
ATOM     23  C   UNL d   1     129.192 133.247 154.130  0.00  0.00     0.000 C 
BRANCH  23  24
ATOM     24  C   UNL d   1     128.910 133.027 152.639  0.00  0.00     0.000 C 
BRANCH  24  25
ATOM     25  C   UNL d   1     128.807 134.308 151.790  0.00  0.00     0.000 C 
ATOM     26  C   UNL d   1     128.955 134.015 150.294  0.00  0.00     0.000 C 
ATOM     27  C   UNL d   1     127.470 135.006 152.051  0.00  0.00     0.000 C 
ENDBRANCH  24  25
ENDBRANCH  23  24
ENDBRANCH  22  23
ENDBRANCH  20  22
ENDBRANCH   5  20
BRANCH  19  28
ATOM     28  O   UNL d   1     125.123 129.123 166.636  0.00  0.00    -0.385 OA
ATOM     29  H   UNL d   1     125.590 129.329 167.466  0.00  0.00     0.210 HD
ENDBRANCH  19  28
TORSDOF 6
ENDMDL
MODEL 2
REMARK VINA RESULT:    -8.639     14.028     15.965
REMARK INTER + INTRA:         -12.152
REMARK INTER:                 -10.559
REMARK INTRA:                  -1.593
REMARK UNBOUND:                -0.735
REMARK  6 active torsions:
REMARK  status: ('A' for Active; 'I' for Inactive)
REMARK    1  A    between atoms: O_1  and  C_22 
REMARK    2  A    between atoms: C_6  and  C_13 
REMARK    3  A    between atoms: C_13  and  C_21 
REMARK    4  A    between atoms: C_21  and  C_24 
REMARK    5  A    between atoms: C_24  and  C_25 
REMARK    6  A    between atoms: C_25  and  C_26 
ROOT
ATOM      1  C   UNL d   1     126.705 125.736 171.708  0.00  0.00     0.000 C 
ATOM      2  C   UNL d   1     128.110 126.055 171.136  0.00  0.00     0.000 C 
ATOM      3  C   UNL d   1     129.059 124.860 171.227  0.00  0.00     0.005 C 
ATOM      4  C   UNL d   1     128.480 123.664 170.418  0.00  0.00     0.004 C 
ATOM      5  C   UNL d   1     126.026 127.141 171.645  0.00  0.00     0.000 C 
ATOM      6  C   UNL d   1     126.110 124.694 170.742  0.00  0.00     0.000 C 
ATOM      7  C   UNL d   1     129.378 122.372 170.587  0.00  0.00     0.015 C 
ATOM      8  C   UNL d   1     128.506 127.339 171.843  0.00  0.00     0.000 C 
ATOM      9  C   UNL d   1     126.965 123.417 170.676  0.00  0.00     0.000 C 
ATOM     10  C   UNL d   1     127.200 128.135 171.899  0.00  0.00     0.000 C 
ATOM     11  C   UNL d   1     130.469 125.207 170.728  0.00  0.00     0.025 C 
ATOM     12  C   UNL d   1     126.772 125.195 173.159  0.00  0.00     0.000 C 
ATOM     13  C   UNL d   1     130.869 122.734 170.508  0.00  0.00    -0.047 C 
ATOM     14  C   UNL d   1     129.041 121.386 169.432  0.00  0.00     0.006 C 
ATOM     15  C   UNL d   1     131.328 123.995 170.548  0.00  0.00    -0.035 C 
ATOM     16  C   UNL d   1     129.117 121.681 171.948  0.00  0.00     0.004 C 
ATOM     17  C   UNL d   1     131.838 121.576 170.364  0.00  0.00     0.051 C 
ATOM     18  C   UNL d   1     129.998 120.198 169.323  0.00  0.00     0.030 C 
ATOM     19  C   UNL d   1     131.450 120.655 169.209  0.00  0.00     0.115 C 
ENDROOT
BRANCH   5  20
ATOM     20  C   UNL d   1     124.794 127.459 172.560  0.00  0.00     0.000 C 
ATOM     21  C   UNL d   1     123.452 127.232 171.852  0.00  0.00     0.000 C 
BRANCH  20  22
ATOM     22  C   UNL d   1     124.902 128.921 173.083  0.00  0.00     0.000 C 
BRANCH  22  23
ATOM     23  C   UNL d   1     124.930 129.139 174.603  0.00  0.00     0.000 C 
BRANCH  23  24
ATOM     24  C   UNL d   1     125.993 128.355 175.382  0.00  0.00     0.000 C 
BRANCH  24  25
ATOM     25  C   UNL d   1     127.413 128.950 175.343  0.00  0.00     0.000 C 
ATOM     26  C   UNL d   1     127.627 129.990 176.448  0.00  0.00     0.000 C 
ATOM     27  C   UNL d   1     128.454 127.836 175.474  0.00  0.00     0.000 C 
ENDBRANCH  24  25
ENDBRANCH  23  24
ENDBRANCH  22  23
ENDBRANCH  20  22
ENDBRANCH   5  20
BRANCH  19  28
ATOM     28  O   UNL d   1     132.307 119.514 169.225  0.00  0.00    -0.385 OA
ATOM     29  H   UNL d   1     132.168 119.033 168.389  0.00  0.00     0.210 HD
ENDBRANCH  19  28
TORSDOF 6
ENDMDL
MODEL 3
REMARK VINA RESULT:    -8.270     47.560     53.259
REMARK INTER + INTRA:         -11.664
REMARK INTER:                 -10.253
REMARK INTRA:                  -1.410
REMARK UNBOUND:                -0.735
REMARK  6 active torsions:
REMARK  status: ('A' for Active; 'I' for Inactive)
REMARK    1  A    between atoms: O_1  and  C_22 
REMARK    2  A    between atoms: C_6  and  C_13 
REMARK    3  A    between atoms: C_13  and  C_21 
REMARK    4  A    between atoms: C_21  and  C_24 
REMARK    5  A    between atoms: C_24  and  C_25 
REMARK    6  A    between atoms: C_25  and  C_26 
ROOT
ATOM      1  C   UNL d   1     144.552 136.900 110.239  0.00  0.00     0.000 C 
ATOM      2  C   UNL d   1     145.088 135.929 109.157  0.00  0.00     0.000 C 
ATOM      3  C   UNL d   1     143.974 135.386 108.261  0.00  0.00     0.005 C 
ATOM      4  C   UNL d   1     143.264 136.563 107.530  0.00  0.00     0.004 C 
ATOM      5  C   UNL d   1     145.842 137.152 111.084  0.00  0.00     0.000 C 
ATOM      6  C   UNL d   1     144.051 138.130 109.457  0.00  0.00     0.000 C 
ATOM      7  C   UNL d   1     142.029 136.048 106.686  0.00  0.00     0.015 C 
ATOM      8  C   UNL d   1     145.922 134.935 109.943  0.00  0.00     0.000 C 
ATOM      9  C   UNL d   1     142.934 137.762 108.465  0.00  0.00     0.000 C 
ATOM     10  C   UNL d   1     146.615 135.801 110.997  0.00  0.00     0.000 C 
ATOM     11  C   UNL d   1     144.502 134.368 107.240  0.00  0.00     0.025 C 
ATOM     12  C   UNL d   1     143.422 136.266 111.089  0.00  0.00     0.000 C 
ATOM     13  C   UNL d   1     142.383 134.753 105.941  0.00  0.00    -0.047 C 
ATOM     14  C   UNL d   1     141.661 137.141 105.641  0.00  0.00     0.006 C 
ATOM     15  C   UNL d   1     143.494 134.038 106.185  0.00  0.00    -0.035 C 
ATOM     16  C   UNL d   1     140.806 135.769 107.593  0.00  0.00     0.004 C 
ATOM     17  C   UNL d   1     141.408 134.300 104.872  0.00  0.00     0.051 C 
ATOM     18  C   UNL d   1     140.642 136.688 104.594  0.00  0.00     0.030 C 
ATOM     19  C   UNL d   1     141.097 135.418 103.880  0.00  0.00     0.115 C 
ENDROOT
BRANCH   5  20
ATOM     20  C   UNL d   1     145.724 137.654 112.565  0.00  0.00     0.000 C 
ATOM     21  C   UNL d   1     145.810 139.180 112.685  0.00  0.00     0.000 C 
BRANCH  20  22
ATOM     22  C   UNL d   1     146.819 136.968 113.432  0.00  0.00     0.000 C 
BRANCH  22  23
ATOM     23  C   UNL d   1     146.363 136.142 114.644  0.00  0.00     0.000 C 
BRANCH  23  24
ATOM     24  C   UNL d   1     145.303 135.067 114.373  0.00  0.00     0.000 C 
BRANCH  24  25
ATOM     25  C   UNL d   1     143.849 135.489 114.652  0.00  0.00     0.000 C 
ATOM     26  C   UNL d   1     142.995 134.312 115.133  0.00  0.00     0.000 C 
ATOM     27  C   UNL d   1     143.817 136.611 115.692  0.00  0.00     0.000 C 
ENDBRANCH  24  25
ENDBRANCH  23  24
ENDBRANCH  22  23
ENDBRANCH  20  22
ENDBRANCH   5  20
BRANCH  19  28
ATOM     28  O   UNL d   1     140.066 134.976 102.998  0.00  0.00    -0.385 OA
ATOM     29  H   UNL d   1     140.271 135.323 102.111  0.00  0.00     0.210 HD
ENDBRANCH  19  28
TORSDOF 6
ENDMDL
MODEL 4
REMARK VINA RESULT:    -7.908     12.746     15.863
REMARK INTER + INTRA:         -11.186
REMARK INTER:                  -9.661
REMARK INTRA:                  -1.525
REMARK UNBOUND:                -0.735
REMARK  6 active torsions:
REMARK  status: ('A' for Active; 'I' for Inactive)
REMARK    1  A    between atoms: O_1  and  C_22 
REMARK    2  A    between atoms: C_6  and  C_13 
REMARK    3  A    between atoms: C_13  and  C_21 
REMARK    4  A    between atoms: C_21  and  C_24 
REMARK    5  A    between atoms: C_24  and  C_25 
REMARK    6  A    between atoms: C_25  and  C_26 
ROOT
ATOM      1  C   UNL d   1     127.325 125.180 173.008  0.00  0.00     0.000 C 
ATOM      2  C   UNL d   1     128.501 125.558 172.072  0.00  0.00     0.000 C 
ATOM      3  C   UNL d   1     129.472 124.395 171.860  0.00  0.00     0.005 C 
ATOM      4  C   UNL d   1     128.722 123.194 171.215  0.00  0.00     0.004 C 
ATOM      5  C   UNL d   1     126.616 126.562 173.176  0.00  0.00     0.000 C 
ATOM      6  C   UNL d   1     126.511 124.135 172.221  0.00  0.00     0.000 C 
ATOM      7  C   UNL d   1     129.668 121.932 171.089  0.00  0.00     0.015 C 
ATOM      8  C   UNL d   1     129.044 126.842 172.672  0.00  0.00     0.000 C 
ATOM      9  C   UNL d   1     127.350 122.890 171.882  0.00  0.00     0.000 C 
ATOM     10  C   UNL d   1     127.785 127.591 173.115  0.00  0.00     0.000 C 
ATOM     11  C   UNL d   1     130.672 124.800 170.993  0.00  0.00     0.025 C 
ATOM     12  C   UNL d   1     127.815 124.616 174.366  0.00  0.00     0.000 C 
ATOM     13  C   UNL d   1     131.064 122.347 170.603  0.00  0.00    -0.047 C 
ATOM     14  C   UNL d   1     129.046 120.955 170.050  0.00  0.00     0.006 C 
ATOM     15  C   UNL d   1     131.480 123.623 170.546  0.00  0.00    -0.035 C 
ATOM     16  C   UNL d   1     129.821 121.208 172.450  0.00  0.00     0.004 C 
ATOM     17  C   UNL d   1     131.986 121.227 170.161  0.00  0.00     0.051 C 
ATOM     18  C   UNL d   1     129.968 119.803 169.644  0.00  0.00     0.030 C 
ATOM     19  C   UNL d   1     131.315 120.313 169.138  0.00  0.00     0.115 C 
ENDROOT
BRANCH   5  20
ATOM     20  C   UNL d   1     125.684 126.820 174.409  0.00  0.00     0.000 C 
ATOM     21  C   UNL d   1     124.487 125.863 174.462  0.00  0.00     0.000 C 
BRANCH  20  22
ATOM     22  C   UNL d   1     125.208 128.302 174.395  0.00  0.00     0.000 C 
BRANCH  22  23
ATOM     23  C   UNL d   1     124.091 128.687 173.413  0.00  0.00     0.000 C 
BRANCH  23  24
ATOM     24  C   UNL d   1     124.542 129.278 172.071  0.00  0.00     0.000 C 
BRANCH  24  25
ATOM     25  C   UNL d   1     124.252 128.408 170.835  0.00  0.00     0.000 C 
ATOM     26  C   UNL d   1     125.534 128.032 170.088  0.00  0.00     0.000 C 
ATOM     27  C   UNL d   1     123.504 127.138 171.250  0.00  0.00     0.000 C 
ENDBRANCH  24  25
ENDBRANCH  23  24
ENDBRANCH  22  23
ENDBRANCH  20  22
ENDBRANCH   5  20
BRANCH  19  28
ATOM     28  O   UNL d   1     132.173 119.203 168.881  0.00  0.00    -0.385 OA
ATOM     29  H   UNL d   1     132.369 118.780 169.737  0.00  0.00     0.210 HD
ENDBRANCH  19  28
TORSDOF 6
ENDMDL
MODEL 5
REMARK VINA RESULT:    -7.872     32.133     35.877
REMARK INTER + INTRA:         -11.138
REMARK INTER:                  -9.725
REMARK INTRA:                  -1.413
REMARK UNBOUND:                -0.735
REMARK  6 active torsions:
REMARK  status: ('A' for Active; 'I' for Inactive)
REMARK    1  A    between atoms: O_1  and  C_22 
REMARK    2  A    between atoms: C_6  and  C_13 
REMARK    3  A    between atoms: C_13  and  C_21 
REMARK    4  A    between atoms: C_21  and  C_24 
REMARK    5  A    between atoms: C_24  and  C_25 
REMARK    6  A    between atoms: C_25  and  C_26 
ROOT
ATOM      1  C   UNL d   1     155.627 137.803 136.899  0.00  0.00     0.000 C 
ATOM      2  C   UNL d   1     154.232 137.615 137.549  0.00  0.00     0.000 C 
ATOM      3  C   UNL d   1     154.233 137.972 139.037  0.00  0.00     0.005 C 
ATOM      4  C   UNL d   1     154.644 139.461 139.221  0.00  0.00     0.004 C 
ATOM      5  C   UNL d   1     155.375 137.219 135.472  0.00  0.00     0.000 C 
ATOM      6  C   UNL d   1     155.879 139.323 136.932  0.00  0.00     0.000 C 
ATOM      7  C   UNL d   1     154.769 139.832 140.754  0.00  0.00     0.015 C 
ATOM      8  C   UNL d   1     153.834 136.206 137.152  0.00  0.00     0.000 C 
ATOM      9  C   UNL d   1     155.879 139.873 138.369  0.00  0.00     0.000 C 
ATOM     10  C   UNL d   1     154.333 136.084 135.710  0.00  0.00     0.000 C 
ATOM     11  C   UNL d   1     152.868 137.712 139.690  0.00  0.00     0.025 C 
ATOM     12  C   UNL d   1     156.735 137.024 137.651  0.00  0.00     0.000 C 
ATOM     13  C   UNL d   1     153.609 139.227 141.556  0.00  0.00    -0.047 C 
ATOM     14  C   UNL d   1     154.716 141.382 140.889  0.00  0.00     0.006 C 
ATOM     15  C   UNL d   1     152.765 138.308 141.059  0.00  0.00    -0.035 C 
ATOM     16  C   UNL d   1     156.099 139.309 141.351  0.00  0.00     0.004 C 
ATOM     17  C   UNL d   1     153.433 139.730 142.976  0.00  0.00     0.051 C 
ATOM     18  C   UNL d   1     154.583 141.881 142.329  0.00  0.00     0.030 C 
ATOM     19  C   UNL d   1     153.381 141.255 143.033  0.00  0.00     0.115 C 
ENDROOT
BRANCH   5  20
ATOM     20  C   UNL d   1     156.582 136.721 134.604  0.00  0.00     0.000 C 
ATOM     21  C   UNL d   1     157.450 137.869 134.075  0.00  0.00     0.000 C 
BRANCH  20  22
ATOM     22  C   UNL d   1     156.049 135.844 133.434  0.00  0.00     0.000 C 
BRANCH  22  23
ATOM     23  C   UNL d   1     156.709 134.476 133.203  0.00  0.00     0.000 C 
BRANCH  23  24
ATOM     24  C   UNL d   1     156.654 133.490 134.377  0.00  0.00     0.000 C 
BRANCH  24  25
ATOM     25  C   UNL d   1     157.992 133.252 135.101  0.00  0.00     0.000 C 
ATOM     26  C   UNL d   1     159.173 133.852 134.333  0.00  0.00     0.000 C 
ATOM     27  C   UNL d   1     157.939 133.843 136.512  0.00  0.00     0.000 C 
ENDBRANCH  24  25
ENDBRANCH  23  24
ENDBRANCH  22  23
ENDBRANCH  20  22
ENDBRANCH   5  20
BRANCH  19  28
ATOM     28  O   UNL d   1     153.368 141.663 144.399  0.00  0.00    -0.385 OA
ATOM     29  H   UNL d   1     152.510 142.093 144.568  0.00  0.00     0.210 HD
ENDBRANCH  19  28
TORSDOF 6
ENDMDL
MODEL 6
REMARK VINA RESULT:    -7.766     52.176     56.644
REMARK INTER + INTRA:         -10.998
REMARK INTER:                  -9.711
REMARK INTRA:                  -1.287
REMARK UNBOUND:                -0.735
REMARK  6 active torsions:
REMARK  status: ('A' for Active; 'I' for Inactive)
REMARK    1  A    between atoms: O_1  and  C_22 
REMARK    2  A    between atoms: C_6  and  C_13 
REMARK    3  A    between atoms: C_13  and  C_21 
REMARK    4  A    between atoms: C_21  and  C_24 
REMARK    5  A    between atoms: C_24  and  C_25 
REMARK    6  A    between atoms: C_25  and  C_26 
ROOT
ATOM      1  C   UNL d   1     155.723 100.641 120.063  0.00  0.00     0.000 C 
ATOM      2  C   UNL d   1     154.510 101.414 120.642  0.00  0.00     0.000 C 
ATOM      3  C   UNL d   1     154.549 101.495 122.169  0.00  0.00     0.005 C 
ATOM      4  C   UNL d   1     155.841 102.232 122.625  0.00  0.00     0.004 C 
ATOM      5  C   UNL d   1     155.341 100.570 118.550  0.00  0.00     0.000 C 
ATOM      6  C   UNL d   1     156.944 101.528 120.373  0.00  0.00     0.000 C 
ATOM      7  C   UNL d   1     155.972 102.230 124.202  0.00  0.00     0.015 C 
ATOM      8  C   UNL d   1     153.312 100.749 119.991  0.00  0.00     0.000 C 
ATOM      9  C   UNL d   1     157.123 101.751 121.885  0.00  0.00     0.000 C 
ATOM     10  C   UNL d   1     153.785 100.477 118.561  0.00  0.00     0.000 C 
ATOM     11  C   UNL d   1     153.308 102.197 122.738  0.00  0.00     0.025 C 
ATOM     12  C   UNL d   1     155.870  99.230 120.686  0.00  0.00     0.000 C 
ATOM     13  C   UNL d   1     154.617 102.529 124.859  0.00  0.00    -0.047 C 
ATOM     14  C   UNL d   1     156.982 103.342 124.611  0.00  0.00     0.006 C 
ATOM     15  C   UNL d   1     153.453 102.532 124.189  0.00  0.00    -0.035 C 
ATOM     16  C   UNL d   1     156.475 100.861 124.721  0.00  0.00     0.004 C 
ATOM     17  C   UNL d   1     154.640 102.844 126.342  0.00  0.00     0.051 C 
ATOM     18  C   UNL d   1     157.030 103.622 126.114  0.00  0.00     0.030 C 
ATOM     19  C   UNL d   1     155.646 103.946 126.670  0.00  0.00     0.115 C 
ENDROOT
BRANCH   5  20
ATOM     20  C   UNL d   1     155.977  99.471 117.631  0.00  0.00     0.000 C 
ATOM     21  C   UNL d   1     156.599 100.049 116.354  0.00  0.00     0.000 C 
BRANCH  20  22
ATOM     22  C   UNL d   1     154.902  98.399 117.287  0.00  0.00     0.000 C 
BRANCH  22  23
ATOM     23  C   UNL d   1     155.344  97.175 116.471  0.00  0.00     0.000 C 
BRANCH  23  24
ATOM     24  C   UNL d   1     155.787  95.947 117.276  0.00  0.00     0.000 C 
BRANCH  24  25
ATOM     25  C   UNL d   1     157.306  95.805 117.480  0.00  0.00     0.000 C 
ATOM     26  C   UNL d   1     158.099  96.496 116.367  0.00  0.00     0.000 C 
ATOM     27  C   UNL d   1     157.711  96.383 118.839  0.00  0.00     0.000 C 
ENDBRANCH  24  25
ENDBRANCH  23  24
ENDBRANCH  22  23
ENDBRANCH  20  22
ENDBRANCH   5  20
BRANCH  19  28
ATOM     28  O   UNL d   1     155.728 104.086 128.087  0.00  0.00    -0.385 OA
ATOM     29  H   UNL d   1     156.668 104.015 128.335  0.00  0.00     0.210 HD
ENDBRANCH  19  28
TORSDOF 6
ENDMDL
MODEL 7
REMARK VINA RESULT:    -7.708     36.661     41.100
REMARK INTER + INTRA:         -10.921
REMARK INTER:                  -9.630
REMARK INTRA:                  -1.291
REMARK UNBOUND:                -0.735
REMARK  6 active torsions:
REMARK  status: ('A' for Active; 'I' for Inactive)
REMARK    1  A    between atoms: O_1  and  C_22 
REMARK    2  A    between atoms: C_6  and  C_13 
REMARK    3  A    between atoms: C_13  and  C_21 
REMARK    4  A    between atoms: C_21  and  C_24 
REMARK    5  A    between atoms: C_24  and  C_25 
REMARK    6  A    between atoms: C_25  and  C_26 
ROOT
ATOM      1  C   UNL d   1     132.406 111.279 123.005  0.00  0.00     0.000 C 
ATOM      2  C   UNL d   1     132.767 112.683 123.556  0.00  0.00     0.000 C 
ATOM      3  C   UNL d   1     133.143 112.645 125.038  0.00  0.00     0.005 C 
ATOM      4  C   UNL d   1     134.381 111.725 125.245  0.00  0.00     0.004 C 
ATOM      5  C   UNL d   1     131.913 111.637 121.567  0.00  0.00     0.000 C 
ATOM      6  C   UNL d   1     133.726 110.485 123.050  0.00  0.00     0.000 C 
ATOM      7  C   UNL d   1     134.725 111.570 126.781  0.00  0.00     0.015 C 
ATOM      8  C   UNL d   1     131.593 113.549 123.138  0.00  0.00     0.000 C 
ATOM      9  C   UNL d   1     134.281 110.373 124.480  0.00  0.00     0.000 C 
ATOM     10  C   UNL d   1     131.251 113.038 121.736  0.00  0.00     0.000 C 
ATOM     11  C   UNL d   1     133.426 114.048 125.594  0.00  0.00     0.025 C 
ATOM     12  C   UNL d   1     131.297 110.589 123.838  0.00  0.00     0.000 C 
ATOM     13  C   UNL d   1     134.616 112.921 127.501  0.00  0.00    -0.047 C 
ATOM     14  C   UNL d   1     136.189 111.054 126.905  0.00  0.00     0.006 C 
ATOM     15  C   UNL d   1     134.059 114.012 126.950  0.00  0.00    -0.035 C 
ATOM     16  C   UNL d   1     133.767 110.570 127.473  0.00  0.00     0.004 C 
ATOM     17  C   UNL d   1     135.192 112.989 128.903  0.00  0.00     0.051 C 
ATOM     18  C   UNL d   1     136.745 111.085 128.329  0.00  0.00     0.030 C 
ATOM     19  C   UNL d   1     136.629 112.475 128.949  0.00  0.00     0.115 C 
ENDROOT
BRANCH   5  20
ATOM     20  C   UNL d   1     130.978 110.648 120.790  0.00  0.00     0.000 C 
ATOM     21  C   UNL d   1     131.732 109.440 120.219  0.00  0.00     0.000 C 
BRANCH  20  22
ATOM     22  C   UNL d   1     130.234 111.419 119.661  0.00  0.00     0.000 C 
BRANCH  22  23
ATOM     23  C   UNL d   1     130.995 111.691 118.355  0.00  0.00     0.000 C 
BRANCH  23  24
ATOM     24  C   UNL d   1     131.369 113.152 118.079  0.00  0.00     0.000 C 
BRANCH  24  25
ATOM     25  C   UNL d   1     132.833 113.393 117.667  0.00  0.00     0.000 C 
ATOM     26  C   UNL d   1     133.752 113.541 118.883  0.00  0.00     0.000 C 
ATOM     27  C   UNL d   1     133.326 112.244 116.783  0.00  0.00     0.000 C 
ENDBRANCH  24  25
ENDBRANCH  23  24
ENDBRANCH  22  23
ENDBRANCH  20  22
ENDBRANCH   5  20
BRANCH  19  28
ATOM     28  O   UNL d   1     137.055 112.424 130.309  0.00  0.00    -0.385 OA
ATOM     29  H   UNL d   1     137.427 113.297 130.532  0.00  0.00     0.210 HD
ENDBRANCH  19  28
TORSDOF 6
ENDMDL
MODEL 8
REMARK VINA RESULT:    -7.688     35.586     39.737
REMARK INTER + INTRA:         -10.895
REMARK INTER:                  -9.504
REMARK INTRA:                  -1.391
REMARK UNBOUND:                -0.735
REMARK  6 active torsions:
REMARK  status: ('A' for Active; 'I' for Inactive)
REMARK    1  A    between atoms: O_1  and  C_22 
REMARK    2  A    between atoms: C_6  and  C_13 
REMARK    3  A    between atoms: C_13  and  C_21 
REMARK    4  A    between atoms: C_21  and  C_24 
REMARK    5  A    between atoms: C_24  and  C_25 
REMARK    6  A    between atoms: C_25  and  C_26 
ROOT
ATOM      1  C   UNL d   1     147.046 152.979 132.152  0.00  0.00     0.000 C 
ATOM      2  C   UNL d   1     146.575 154.199 132.983  0.00  0.00     0.000 C 
ATOM      3  C   UNL d   1     145.067 154.429 132.873  0.00  0.00     0.005 C 
ATOM      4  C   UNL d   1     144.303 153.179 133.394  0.00  0.00     0.004 C 
ATOM      5  C   UNL d   1     148.597 153.087 132.310  0.00  0.00     0.000 C 
ATOM      6  C   UNL d   1     146.416 151.757 132.847  0.00  0.00     0.000 C 
ATOM      7  C   UNL d   1     142.743 153.335 133.185  0.00  0.00     0.015 C 
ATOM      8  C   UNL d   1     147.503 155.317 132.545  0.00  0.00     0.000 C 
ATOM      9  C   UNL d   1     144.879 151.835 132.862  0.00  0.00     0.000 C 
ATOM     10  C   UNL d   1     148.858 154.621 132.397  0.00  0.00     0.000 C 
ATOM     11  C   UNL d   1     144.620 155.683 133.638  0.00  0.00     0.025 C 
ATOM     12  C   UNL d   1     146.612 153.078 130.668  0.00  0.00     0.000 C 
ATOM     13  C   UNL d   1     142.285 154.753 133.555  0.00  0.00    -0.047 C 
ATOM     14  C   UNL d   1     142.019 152.317 134.114  0.00  0.00     0.006 C 
ATOM     15  C   UNL d   1     143.132 155.771 133.775  0.00  0.00    -0.035 C 
ATOM     16  C   UNL d   1     142.343 153.063 131.714  0.00  0.00     0.004 C 
ATOM     17  C   UNL d   1     140.789 154.969 133.683  0.00  0.00     0.051 C 
ATOM     18  C   UNL d   1     140.505 152.515 134.201  0.00  0.00     0.030 C 
ATOM     19  C   UNL d   1     140.147 153.941 134.613  0.00  0.00     0.115 C 
ENDROOT
BRANCH   5  20
ATOM     20  C   UNL d   1     149.541 152.399 131.265  0.00  0.00     0.000 C 
ATOM     21  C   UNL d   1     150.032 151.020 131.722  0.00  0.00     0.000 C 
BRANCH  20  22
ATOM     22  C   UNL d   1     150.743 153.340 130.958  0.00  0.00     0.000 C 
BRANCH  22  23
ATOM     23  C   UNL d   1     151.189 153.480 129.495  0.00  0.00     0.000 C 
BRANCH  23  24
ATOM     24  C   UNL d   1     150.122 153.198 128.429  0.00  0.00     0.000 C 
BRANCH  24  25
ATOM     25  C   UNL d   1     150.389 151.974 127.535  0.00  0.00     0.000 C 
ATOM     26  C   UNL d   1     151.607 151.175 128.008  0.00  0.00     0.000 C 
ATOM     27  C   UNL d   1     149.156 151.068 127.502  0.00  0.00     0.000 C 
ENDBRANCH  24  25
ENDBRANCH  23  24
ENDBRANCH  22  23
ENDBRANCH  20  22
ENDBRANCH   5  20
BRANCH  19  28
ATOM     28  O   UNL d   1     138.731 154.104 134.569  0.00  0.00    -0.385 OA
ATOM     29  H   UNL d   1     138.540 155.049 134.717  0.00  0.00     0.210 HD
ENDBRANCH  19  28
TORSDOF 6
ENDMDL
MODEL 9
REMARK VINA RESULT:    -7.666     36.668     38.144
REMARK INTER + INTRA:         -10.865
REMARK INTER:                 -10.047
REMARK INTRA:                  -0.818
REMARK UNBOUND:                -0.735
REMARK  6 active torsions:
REMARK  status: ('A' for Active; 'I' for Inactive)
REMARK    1  A    between atoms: O_1  and  C_22 
REMARK    2  A    between atoms: C_6  and  C_13 
REMARK    3  A    between atoms: C_13  and  C_21 
REMARK    4  A    between atoms: C_21  and  C_24 
REMARK    5  A    between atoms: C_24  and  C_25 
REMARK    6  A    between atoms: C_25  and  C_26 
ROOT
ATOM      1  C   UNL d   1     140.284 140.648 125.693  0.00  0.00     0.000 C 
ATOM      2  C   UNL d   1     141.405 139.623 126.002  0.00  0.00     0.000 C 
ATOM      3  C   UNL d   1     142.793 140.266 126.012  0.00  0.00     0.005 C 
ATOM      4  C   UNL d   1     142.853 141.375 127.101  0.00  0.00     0.004 C 
ATOM      5  C   UNL d   1     139.040 139.711 125.582  0.00  0.00     0.000 C 
ATOM      6  C   UNL d   1     140.265 141.595 126.910  0.00  0.00     0.000 C 
ATOM      7  C   UNL d   1     144.237 142.141 127.059  0.00  0.00     0.015 C 
ATOM      8  C   UNL d   1     141.146 138.495 125.021  0.00  0.00     0.000 C 
ATOM      9  C   UNL d   1     141.612 142.313 127.099  0.00  0.00     0.000 C 
ATOM     10  C   UNL d   1     139.619 138.389 124.991  0.00  0.00     0.000 C 
ATOM     11  C   UNL d   1     143.903 139.231 126.244  0.00  0.00     0.025 C 
ATOM     12  C   UNL d   1     140.543 141.420 124.375  0.00  0.00     0.000 C 
ATOM     13  C   UNL d   1     145.398 141.154 126.870  0.00  0.00    -0.047 C 
ATOM     14  C   UNL d   1     144.427 142.883 128.414  0.00  0.00     0.006 C 
ATOM     15  C   UNL d   1     145.228 139.866 126.532  0.00  0.00    -0.035 C 
ATOM     16  C   UNL d   1     144.275 143.167 125.900  0.00  0.00     0.004 C 
ATOM     17  C   UNL d   1     146.794 141.702 127.098  0.00  0.00     0.051 C 
ATOM     18  C   UNL d   1     145.826 143.470 128.616  0.00  0.00     0.030 C 
ATOM     19  C   UNL d   1     146.910 142.409 128.446  0.00  0.00     0.115 C 
ENDROOT
BRANCH   5  20
ATOM     20  C   UNL d   1     137.769 140.184 124.797  0.00  0.00     0.000 C 
ATOM     21  C   UNL d   1     136.957 141.239 125.558  0.00  0.00     0.000 C 
BRANCH  20  22
ATOM     22  C   UNL d   1     136.886 138.950 124.450  0.00  0.00     0.000 C 
BRANCH  22  23
ATOM     23  C   UNL d   1     136.439 138.774 122.991  0.00  0.00     0.000 C 
BRANCH  23  24
ATOM     24  C   UNL d   1     137.410 138.026 122.069  0.00  0.00     0.000 C 
BRANCH  24  25
ATOM     25  C   UNL d   1     136.755 137.060 121.066  0.00  0.00     0.000 C 
ATOM     26  C   UNL d   1     135.568 136.313 121.683  0.00  0.00     0.000 C 
ATOM     27  C   UNL d   1     136.296 137.824 119.822  0.00  0.00     0.000 C 
ENDBRANCH  24  25
ENDBRANCH  23  24
ENDBRANCH  22  23
ENDBRANCH  20  22
ENDBRANCH   5  20
BRANCH  19  28
ATOM     28  O   UNL d   1     148.193 143.027 128.531  0.00  0.00    -0.385 OA
ATOM     29  H   UNL d   1     148.857 142.316 128.597  0.00  0.00     0.210 HD
ENDBRANCH  19  28
TORSDOF 6
ENDMDL
MODEL 10
REMARK VINA RESULT:    -7.660     35.747     40.442
REMARK INTER + INTRA:         -10.858
REMARK INTER:                  -9.178
REMARK INTRA:                  -1.680
REMARK UNBOUND:                -0.735
REMARK  6 active torsions:
REMARK  status: ('A' for Active; 'I' for Inactive)
REMARK    1  A    between atoms: O_1  and  C_22 
REMARK    2  A    between atoms: C_6  and  C_13 
REMARK    3  A    between atoms: C_13  and  C_21 
REMARK    4  A    between atoms: C_21  and  C_24 
REMARK    5  A    between atoms: C_24  and  C_25 
REMARK    6  A    between atoms: C_25  and  C_26 
ROOT
ATOM      1  C   UNL d   1     144.757 153.634 131.050  0.00  0.00     0.000 C 
ATOM      2  C   UNL d   1     145.650 153.151 132.221  0.00  0.00     0.000 C 
ATOM      3  C   UNL d   1     146.900 152.417 131.733  0.00  0.00     0.005 C 
ATOM      4  C   UNL d   1     147.757 153.366 130.846  0.00  0.00     0.004 C 
ATOM      5  C   UNL d   1     143.513 154.176 131.824  0.00  0.00     0.000 C 
ATOM      6  C   UNL d   1     145.589 154.718 130.337  0.00  0.00     0.000 C 
ATOM      7  C   UNL d   1     148.997 152.604 130.228  0.00  0.00     0.015 C 
ATOM      8  C   UNL d   1     144.689 152.403 133.126  0.00  0.00     0.000 C 
ATOM      9  C   UNL d   1     146.919 154.160 129.802  0.00  0.00     0.000 C 
ATOM     10  C   UNL d   1     143.413 153.247 133.071  0.00  0.00     0.000 C 
ATOM     11  C   UNL d   1     147.741 151.877 132.899  0.00  0.00     0.025 C 
ATOM     12  C   UNL d   1     144.378 152.481 130.088  0.00  0.00     0.000 C 
ATOM     13  C   UNL d   1     149.654 151.696 131.277  0.00  0.00    -0.047 C 
ATOM     14  C   UNL d   1     150.039 153.662 129.760  0.00  0.00     0.006 C 
ATOM     15  C   UNL d   1     149.092 151.406 132.462  0.00  0.00    -0.035 C 
ATOM     16  C   UNL d   1     148.575 151.729 129.022  0.00  0.00     0.004 C 
ATOM     17  C   UNL d   1     151.014 151.127 130.922  0.00  0.00     0.051 C 
ATOM     18  C   UNL d   1     151.393 153.073 129.362  0.00  0.00     0.030 C 
ATOM     19  C   UNL d   1     151.986 152.219 130.479  0.00  0.00     0.115 C 
ENDROOT
BRANCH   5  20
ATOM     20  C   UNL d   1     142.132 154.310 131.093  0.00  0.00     0.000 C 
ATOM     21  C   UNL d   1     141.852 155.737 130.605  0.00  0.00     0.000 C 
BRANCH  20  22
ATOM     22  C   UNL d   1     140.998 153.816 132.037  0.00  0.00     0.000 C 
BRANCH  22  23
ATOM     23  C   UNL d   1     140.148 152.622 131.576  0.00  0.00     0.000 C 
BRANCH  23  24
ATOM     24  C   UNL d   1     140.880 151.536 130.778  0.00  0.00     0.000 C 
BRANCH  24  25
ATOM     25  C   UNL d   1     141.646 150.500 131.622  0.00  0.00     0.000 C 
ATOM     26  C   UNL d   1     140.903 150.157 132.917  0.00  0.00     0.000 C 
ATOM     27  C   UNL d   1     141.881 149.226 130.806  0.00  0.00     0.000 C 
ENDBRANCH  24  25
ENDBRANCH  23  24
ENDBRANCH  22  23
ENDBRANCH  20  22
ENDBRANCH   5  20
BRANCH  19  28
ATOM     28  O   UNL d   1     153.188 151.605 130.018  0.00  0.00    -0.385 OA
ATOM     29  H   UNL d   1     152.970 150.688 129.768  0.00  0.00     0.210 HD
ENDBRANCH  19  28
TORSDOF 6
ENDMDL
MODEL 11
REMARK VINA RESULT:    -7.643     54.051     59.303
REMARK INTER + INTRA:         -10.835
REMARK INTER:                  -9.808
REMARK INTRA:                  -1.027
REMARK UNBOUND:                -0.735
REMARK  6 active torsions:
REMARK  status: ('A' for Active; 'I' for Inactive)
REMARK    1  A    between atoms: O_1  and  C_22 
REMARK    2  A    between atoms: C_6  and  C_13 
REMARK    3  A    between atoms: C_13  and  C_21 
REMARK    4  A    between atoms: C_21  and  C_24 
REMARK    5  A    between atoms: C_24  and  C_25 
REMARK    6  A    between atoms: C_25  and  C_26 
ROOT
ATOM      1  C   UNL d   1     161.649 105.312 120.479  0.00  0.00     0.000 C 
ATOM      2  C   UNL d   1     161.679 106.157 119.180  0.00  0.00     0.000 C 
ATOM      3  C   UNL d   1     162.853 105.787 118.273  0.00  0.00     0.005 C 
ATOM      4  C   UNL d   1     162.750 104.290 117.861  0.00  0.00     0.004 C 
ATOM      5  C   UNL d   1     160.487 106.002 121.262  0.00  0.00     0.000 C 
ATOM      6  C   UNL d   1     161.341 103.876 120.012  0.00  0.00     0.000 C 
ATOM      7  C   UNL d   1     164.012 103.842 117.018  0.00  0.00     0.015 C 
ATOM      8  C   UNL d   1     161.581 107.588 119.676  0.00  0.00     0.000 C 
ATOM      9  C   UNL d   1     162.415 103.342 119.048  0.00  0.00     0.000 C 
ATOM     10  C   UNL d   1     160.587 107.498 120.836  0.00  0.00     0.000 C 
ATOM     11  C   UNL d   1     162.919 106.678 117.025  0.00  0.00     0.025 C 
ATOM     12  C   UNL d   1     162.988 105.383 121.255  0.00  0.00     0.000 C 
ATOM     13  C   UNL d   1     164.391 104.920 115.994  0.00  0.00    -0.047 C 
ATOM     14  C   UNL d   1     163.653 102.532 116.257  0.00  0.00     0.006 C 
ATOM     15  C   UNL d   1     163.878 106.162 116.000  0.00  0.00    -0.035 C 
ATOM     16  C   UNL d   1     165.235 103.587 117.933  0.00  0.00     0.004 C 
ATOM     17  C   UNL d   1     165.391 104.517 114.927  0.00  0.00     0.051 C 
ATOM     18  C   UNL d   1     164.690 102.110 115.214  0.00  0.00     0.030 C 
ATOM     19  C   UNL d   1     164.973 103.231 114.218  0.00  0.00     0.115 C 
ENDROOT
BRANCH   5  20
ATOM     20  C   UNL d   1     160.393 105.852 122.820  0.00  0.00     0.000 C 
ATOM     21  C   UNL d   1     158.961 105.605 123.309  0.00  0.00     0.000 C 
BRANCH  20  22
ATOM     22  C   UNL d   1     161.000 107.114 123.498  0.00  0.00     0.000 C 
BRANCH  22  23
ATOM     23  C   UNL d   1     160.074 107.973 124.373  0.00  0.00     0.000 C 
BRANCH  23  24
ATOM     24  C   UNL d   1     159.993 109.463 124.017  0.00  0.00     0.000 C 
BRANCH  24  25
ATOM     25  C   UNL d   1     158.570 110.029 123.865  0.00  0.00     0.000 C 
ATOM     26  C   UNL d   1     158.565 111.561 123.834  0.00  0.00     0.000 C 
ATOM     27  C   UNL d   1     157.920 109.484 122.591  0.00  0.00     0.000 C 
ENDBRANCH  24  25
ENDBRANCH  23  24
ENDBRANCH  22  23
ENDBRANCH  20  22
ENDBRANCH   5  20
BRANCH  19  28
ATOM     28  O   UNL d   1     166.024 102.829 113.340  0.00  0.00    -0.385 OA
ATOM     29  H   UNL d   1     165.739 102.006 112.902  0.00  0.00     0.210 HD
ENDBRANCH  19  28
TORSDOF 6
ENDMDL
MODEL 12
REMARK VINA RESULT:    -7.584     36.446     40.671
REMARK INTER + INTRA:         -10.758
REMARK INTER:                  -9.352
REMARK INTRA:                  -1.406
REMARK UNBOUND:                -0.735
REMARK  6 active torsions:
REMARK  status: ('A' for Active; 'I' for Inactive)
REMARK    1  A    between atoms: O_1  and  C_22 
REMARK    2  A    between atoms: C_6  and  C_13 
REMARK    3  A    between atoms: C_13  and  C_21 
REMARK    4  A    between atoms: C_21  and  C_24 
REMARK    5  A    between atoms: C_24  and  C_25 
REMARK    6  A    between atoms: C_25  and  C_26 
ROOT
ATOM      1  C   UNL d   1     133.877 112.419 126.152  0.00  0.00     0.000 C 
ATOM      2  C   UNL d   1     134.323 111.670 124.870  0.00  0.00     0.000 C 
ATOM      3  C   UNL d   1     133.143 111.313 123.966  0.00  0.00     0.005 C 
ATOM      4  C   UNL d   1     132.406 112.610 123.523  0.00  0.00     0.004 C 
ATOM      5  C   UNL d   1     135.224 112.500 126.939  0.00  0.00     0.000 C 
ATOM      6  C   UNL d   1     133.345 113.777 125.653  0.00  0.00     0.000 C 
ATOM      7  C   UNL d   1     131.109 112.270 122.683  0.00  0.00     0.015 C 
ATOM      8  C   UNL d   1     135.191 110.541 125.394  0.00  0.00     0.000 C 
ATOM      9  C   UNL d   1     132.158 113.610 124.689  0.00  0.00     0.000 C 
ATOM     10  C   UNL d   1     135.967 111.188 126.543  0.00  0.00     0.000 C 
ATOM     11  C   UNL d   1     133.585 110.506 122.737  0.00  0.00     0.025 C 
ATOM     12  C   UNL d   1     132.796 111.639 126.941  0.00  0.00     0.000 C 
ATOM     13  C   UNL d   1     131.391 111.140 121.683  0.00  0.00    -0.047 C 
ATOM     14  C   UNL d   1     130.690 113.544 121.892  0.00  0.00     0.006 C 
ATOM     15  C   UNL d   1     132.503 110.387 121.709  0.00  0.00    -0.035 C 
ATOM     16  C   UNL d   1     129.944 111.828 123.602  0.00  0.00     0.004 C 
ATOM     17  C   UNL d   1     130.339 110.902 120.616  0.00  0.00     0.051 C 
ATOM     18  C   UNL d   1     129.597 113.303 120.850  0.00  0.00     0.030 C 
ATOM     19  C   UNL d   1     129.981 112.190 119.878  0.00  0.00     0.115 C 
ENDROOT
BRANCH   5  20
ATOM     20  C   UNL d   1     135.213 112.711 128.492  0.00  0.00     0.000 C 
ATOM     21  C   UNL d   1     134.627 114.066 128.905  0.00  0.00     0.000 C 
BRANCH  20  22
ATOM     22  C   UNL d   1     136.657 112.540 129.046  0.00  0.00     0.000 C 
BRANCH  22  23
ATOM     23  C   UNL d   1     136.861 111.597 130.242  0.00  0.00     0.000 C 
BRANCH  23  24
ATOM     24  C   UNL d   1     135.724 110.608 130.528  0.00  0.00     0.000 C 
BRANCH  24  25
ATOM     25  C   UNL d   1     135.774 109.295 129.726  0.00  0.00     0.000 C 
ATOM     26  C   UNL d   1     136.171 108.104 130.603  0.00  0.00     0.000 C 
ATOM     27  C   UNL d   1     134.416 109.026 129.072  0.00  0.00     0.000 C 
ENDBRANCH  24  25
ENDBRANCH  23  24
ENDBRANCH  22  23
ENDBRANCH  20  22
ENDBRANCH   5  20
BRANCH  19  28
ATOM     28  O   UNL d   1     128.887 111.929 119.002  0.00  0.00    -0.385 OA
ATOM     29  H   UNL d   1     128.090 112.319 119.405  0.00  0.00     0.210 HD
ENDBRANCH  19  28
TORSDOF 6
ENDMDL
MODEL 13
REMARK VINA RESULT:    -7.581     33.524     36.646
REMARK INTER + INTRA:         -10.753
REMARK INTER:                  -9.219
REMARK INTRA:                  -1.534
REMARK UNBOUND:                -0.735
REMARK  6 active torsions:
REMARK  status: ('A' for Active; 'I' for Inactive)
REMARK    1  A    between atoms: O_1  and  C_22 
REMARK    2  A    between atoms: C_6  and  C_13 
REMARK    3  A    between atoms: C_13  and  C_21 
REMARK    4  A    between atoms: C_21  and  C_24 
REMARK    5  A    between atoms: C_24  and  C_25 
REMARK    6  A    between atoms: C_25  and  C_26 
ROOT
ATOM      1  C   UNL d   1     133.853 111.984 129.379  0.00  0.00     0.000 C 
ATOM      2  C   UNL d   1     132.617 112.664 128.736  0.00  0.00     0.000 C 
ATOM      3  C   UNL d   1     131.308 111.974 129.124  0.00  0.00     0.005 C 
ATOM      4  C   UNL d   1     131.124 112.023 130.668  0.00  0.00     0.004 C 
ATOM      5  C   UNL d   1     135.018 112.765 128.692  0.00  0.00     0.000 C 
ATOM      6  C   UNL d   1     133.709 112.247 130.890  0.00  0.00     0.000 C 
ATOM      7  C   UNL d   1     129.839 111.215 131.115  0.00  0.00     0.015 C 
ATOM      8  C   UNL d   1     132.973 112.745 127.263  0.00  0.00     0.000 C 
ATOM      9  C   UNL d   1     132.411 111.646 131.457  0.00  0.00     0.000 C 
ATOM     10  C   UNL d   1     134.464 113.093 127.273  0.00  0.00     0.000 C 
ATOM     11  C   UNL d   1     130.097 112.606 128.424  0.00  0.00     0.025 C 
ATOM     12  C   UNL d   1     133.916 110.467 129.068  0.00  0.00     0.000 C 
ATOM     13  C   UNL d   1     128.663 111.500 130.169  0.00  0.00    -0.047 C 
ATOM     14  C   UNL d   1     129.447 111.673 132.550  0.00  0.00     0.006 C 
ATOM     15  C   UNL d   1     128.795 112.137 128.994  0.00  0.00    -0.035 C 
ATOM     16  C   UNL d   1     130.106 109.690 131.115  0.00  0.00     0.004 C 
ATOM     17  C   UNL d   1     127.296 111.030 130.629  0.00  0.00     0.051 C 
ATOM     18  C   UNL d   1     128.086 111.158 133.022  0.00  0.00     0.030 C 
ATOM     19  C   UNL d   1     126.976 111.520 132.039  0.00  0.00     0.115 C 
ENDROOT
BRANCH   5  20
ATOM     20  C   UNL d   1     136.451 112.133 128.619  0.00  0.00     0.000 C 
ATOM     21  C   UNL d   1     137.362 112.587 129.766  0.00  0.00     0.000 C 
BRANCH  20  22
ATOM     22  C   UNL d   1     137.092 112.463 127.240  0.00  0.00     0.000 C 
BRANCH  22  23
ATOM     23  C   UNL d   1     137.566 111.290 126.369  0.00  0.00     0.000 C 
BRANCH  23  24
ATOM     24  C   UNL d   1     137.555 109.906 127.030  0.00  0.00     0.000 C 
BRANCH  24  25
ATOM     25  C   UNL d   1     136.408 108.975 126.596  0.00  0.00     0.000 C 
ATOM     26  C   UNL d   1     135.414 109.687 125.673  0.00  0.00     0.000 C 
ATOM     27  C   UNL d   1     136.972 107.738 125.892  0.00  0.00     0.000 C 
ENDBRANCH  24  25
ENDBRANCH  23  24
ENDBRANCH  22  23
ENDBRANCH  20  22
ENDBRANCH   5  20
BRANCH  19  28
ATOM     28  O   UNL d   1     125.753 110.923 132.466  0.00  0.00    -0.385 OA
ATOM     29  H   UNL d   1     125.458 111.399 133.264  0.00  0.00     0.210 HD
ENDBRANCH  19  28
TORSDOF 6
ENDMDL
MODEL 14
REMARK VINA RESULT:    -7.312     35.063     40.820
REMARK INTER + INTRA:         -10.397
REMARK INTER:                  -9.596
REMARK INTRA:                  -0.802
REMARK UNBOUND:                -0.735
REMARK  6 active torsions:
REMARK  status: ('A' for Active; 'I' for Inactive)
REMARK    1  A    between atoms: O_1  and  C_22 
REMARK    2  A    between atoms: C_6  and  C_13 
REMARK    3  A    between atoms: C_13  and  C_21 
REMARK    4  A    between atoms: C_21  and  C_24 
REMARK    5  A    between atoms: C_24  and  C_25 
REMARK    6  A    between atoms: C_25  and  C_26 
ROOT
ATOM      1  C   UNL d   1     159.666 134.200 133.642  0.00  0.00     0.000 C 
ATOM      2  C   UNL d   1     159.470 133.720 135.102  0.00  0.00     0.000 C 
ATOM      3  C   UNL d   1     158.587 134.671 135.912  0.00  0.00     0.005 C 
ATOM      4  C   UNL d   1     157.180 134.772 135.255  0.00  0.00     0.004 C 
ATOM      5  C   UNL d   1     160.713 133.164 133.122  0.00  0.00     0.000 C 
ATOM      6  C   UNL d   1     158.273 134.082 132.994  0.00  0.00     0.000 C 
ATOM      7  C   UNL d   1     156.279 135.839 136.000  0.00  0.00     0.015 C 
ATOM      8  C   UNL d   1     160.883 133.463 135.593  0.00  0.00     0.000 C 
ATOM      9  C   UNL d   1     157.230 134.957 133.711  0.00  0.00     0.000 C 
ATOM     10  C   UNL d   1     161.577 132.842 134.379  0.00  0.00     0.000 C 
ATOM     11  C   UNL d   1     158.458 134.228 137.377  0.00  0.00     0.025 C 
ATOM     12  C   UNL d   1     160.207 135.650 133.569  0.00  0.00     0.000 C 
ATOM     13  C   UNL d   1     156.433 135.711 137.522  0.00  0.00    -0.047 C 
ATOM     14  C   UNL d   1     154.792 135.571 135.624  0.00  0.00     0.006 C 
ATOM     15  C   UNL d   1     157.390 134.975 138.111  0.00  0.00    -0.035 C 
ATOM     16  C   UNL d   1     156.662 137.282 135.590  0.00  0.00     0.004 C 
ATOM     17  C   UNL d   1     155.424 136.463 138.369  0.00  0.00     0.051 C 
ATOM     18  C   UNL d   1     153.784 136.367 136.454  0.00  0.00     0.030 C 
ATOM     19  C   UNL d   1     153.990 136.148 137.950  0.00  0.00     0.115 C 
ENDROOT
BRANCH   5  20
ATOM     20  C   UNL d   1     161.607 133.508 131.881  0.00  0.00     0.000 C 
ATOM     21  C   UNL d   1     161.042 132.955 130.567  0.00  0.00     0.000 C 
BRANCH  20  22
ATOM     22  C   UNL d   1     163.053 132.985 132.125  0.00  0.00     0.000 C 
BRANCH  22  23
ATOM     23  C   UNL d   1     163.590 131.896 131.184  0.00  0.00     0.000 C 
BRANCH  23  24
ATOM     24  C   UNL d   1     164.515 130.849 131.816  0.00  0.00     0.000 C 
BRANCH  24  25
ATOM     25  C   UNL d   1     165.918 131.353 132.200  0.00  0.00     0.000 C 
ATOM     26  C   UNL d   1     166.871 130.198 132.522  0.00  0.00     0.000 C 
ATOM     27  C   UNL d   1     166.500 132.202 131.067  0.00  0.00     0.000 C 
ENDBRANCH  24  25
ENDBRANCH  23  24
ENDBRANCH  22  23
ENDBRANCH  20  22
ENDBRANCH   5  20
BRANCH  19  28
ATOM     28  O   UNL d   1     153.103 136.996 138.678  0.00  0.00    -0.385 OA
ATOM     29  H   UNL d   1     153.604 137.370 139.426  0.00  0.00     0.210 HD
ENDBRANCH  19  28
TORSDOF 6
ENDMDL
MODEL 15
REMARK VINA RESULT:    -7.263     34.481     39.548
REMARK INTER + INTRA:         -10.334
REMARK INTER:                  -8.647
REMARK INTRA:                  -1.687
REMARK UNBOUND:                -0.735
REMARK  6 active torsions:
REMARK  status: ('A' for Active; 'I' for Inactive)
REMARK    1  A    between atoms: O_1  and  C_22 
REMARK    2  A    between atoms: C_6  and  C_13 
REMARK    3  A    between atoms: C_13  and  C_21 
REMARK    4  A    between atoms: C_21  and  C_24 
REMARK    5  A    between atoms: C_24  and  C_25 
REMARK    6  A    between atoms: C_25  and  C_26 
ROOT
ATOM      1  C   UNL d   1     135.295 110.613 127.835  0.00  0.00     0.000 C 
ATOM      2  C   UNL d   1     136.176 109.800 128.819  0.00  0.00     0.000 C 
ATOM      3  C   UNL d   1     136.057 108.292 128.595  0.00  0.00     0.005 C 
ATOM      4  C   UNL d   1     136.511 107.936 127.150  0.00  0.00     0.004 C 
ATOM      5  C   UNL d   1     135.479 112.061 128.391  0.00  0.00     0.000 C 
ATOM      6  C   UNL d   1     135.926 110.375 126.449  0.00  0.00     0.000 C 
ATOM      7  C   UNL d   1     136.289 106.399 126.845  0.00  0.00     0.015 C 
ATOM      8  C   UNL d   1     135.802 110.353 130.182  0.00  0.00     0.000 C 
ATOM      9  C   UNL d   1     135.925 108.885 126.065  0.00  0.00     0.000 C 
ATOM     10  C   UNL d   1     135.639 111.854 129.928  0.00  0.00     0.000 C 
ATOM     11  C   UNL d   1     136.873 107.493 129.621  0.00  0.00     0.025 C 
ATOM     12  C   UNL d   1     133.812 110.166 127.871  0.00  0.00     0.000 C 
ATOM     13  C   UNL d   1     136.718 105.541 128.044  0.00  0.00    -0.047 C 
ATOM     14  C   UNL d   1     137.161 106.013 125.615  0.00  0.00     0.006 C 
ATOM     15  C   UNL d   1     136.995 106.047 129.256  0.00  0.00    -0.035 C 
ATOM     16  C   UNL d   1     134.801 106.097 126.537  0.00  0.00     0.004 C 
ATOM     17  C   UNL d   1     136.836 104.049 127.799  0.00  0.00     0.051 C 
ATOM     18  C   UNL d   1     137.237 104.508 125.350  0.00  0.00     0.030 C 
ATOM     19  C   UNL d   1     137.709 103.743 126.583  0.00  0.00     0.115 C 
ENDROOT
BRANCH   5  20
ATOM     20  C   UNL d   1     134.415 113.166 128.066  0.00  0.00     0.000 C 
ATOM     21  C   UNL d   1     134.682 113.876 126.734  0.00  0.00     0.000 C 
BRANCH  20  22
ATOM     22  C   UNL d   1     134.360 114.189 129.237  0.00  0.00     0.000 C 
BRANCH  22  23
ATOM     23  C   UNL d   1     133.038 114.328 130.008  0.00  0.00     0.000 C 
BRANCH  23  24
ATOM     24  C   UNL d   1     132.099 113.117 129.968  0.00  0.00     0.000 C 
BRANCH  24  25
ATOM     25  C   UNL d   1     131.877 112.409 131.317  0.00  0.00     0.000 C 
ATOM     26  C   UNL d   1     132.321 110.943 131.273  0.00  0.00     0.000 C 
ATOM     27  C   UNL d   1     132.632 113.144 132.428  0.00  0.00     0.000 C 
ENDBRANCH  24  25
ENDBRANCH  23  24
ENDBRANCH  22  23
ENDBRANCH  20  22
ENDBRANCH   5  20
BRANCH  19  28
ATOM     28  O   UNL d   1     137.655 102.342 126.320  0.00  0.00    -0.385 OA
ATOM     29  H   UNL d   1     138.572 102.016 126.283  0.00  0.00     0.210 HD
ENDBRANCH  19  28
TORSDOF 6
ENDMDL
MODEL 16
REMARK VINA RESULT:    -7.192     13.641     17.739
REMARK INTER + INTRA:         -10.239
REMARK INTER:                  -9.342
REMARK INTRA:                  -0.897
REMARK UNBOUND:                -0.735
REMARK  6 active torsions:
REMARK  status: ('A' for Active; 'I' for Inactive)
REMARK    1  A    between atoms: O_1  and  C_22 
REMARK    2  A    between atoms: C_6  and  C_13 
REMARK    3  A    between atoms: C_13  and  C_21 
REMARK    4  A    between atoms: C_21  and  C_24 
REMARK    5  A    between atoms: C_24  and  C_25 
REMARK    6  A    between atoms: C_25  and  C_26 
ROOT
ATOM      1  C   UNL d   1     129.533 119.386 170.199  0.00  0.00     0.000 C 
ATOM      2  C   UNL d   1     128.761 119.846 171.462  0.00  0.00     0.000 C 
ATOM      3  C   UNL d   1     129.177 121.244 171.920  0.00  0.00     0.005 C 
ATOM      4  C   UNL d   1     128.891 122.276 170.790  0.00  0.00     0.004 C 
ATOM      5  C   UNL d   1     129.045 117.908 170.068  0.00  0.00     0.000 C 
ATOM      6  C   UNL d   1     129.048 120.322 169.074  0.00  0.00     0.000 C 
ATOM      7  C   UNL d   1     129.417 123.714 171.185  0.00  0.00     0.015 C 
ATOM      8  C   UNL d   1     128.937 118.693 172.433  0.00  0.00     0.000 C 
ATOM      9  C   UNL d   1     129.354 121.798 169.384  0.00  0.00     0.000 C 
ATOM     10  C   UNL d   1     128.830 117.453 171.543  0.00  0.00     0.000 C 
ATOM     11  C   UNL d   1     128.462 121.661 173.213  0.00  0.00     0.025 C 
ATOM     12  C   UNL d   1     131.069 119.470 170.387  0.00  0.00     0.000 C 
ATOM     13  C   UNL d   1     129.083 124.032 172.649  0.00  0.00    -0.047 C 
ATOM     14  C   UNL d   1     128.714 124.761 170.272  0.00  0.00     0.006 C 
ATOM     15  C   UNL d   1     128.639 123.114 173.524  0.00  0.00    -0.035 C 
ATOM     16  C   UNL d   1     130.951 123.820 171.002  0.00  0.00     0.004 C 
ATOM     17  C   UNL d   1     129.264 125.473 173.087  0.00  0.00     0.051 C 
ATOM     18  C   UNL d   1     128.939 126.213 170.696  0.00  0.00     0.030 C 
ATOM     19  C   UNL d   1     128.543 126.442 172.153  0.00  0.00     0.115 C 
ENDROOT
BRANCH   5  20
ATOM     20  C   UNL d   1     129.900 116.869 169.263  0.00  0.00     0.000 C 
ATOM     21  C   UNL d   1     129.558 116.848 167.768  0.00  0.00     0.000 C 
BRANCH  20  22
ATOM     22  C   UNL d   1     129.720 115.456 169.891  0.00  0.00     0.000 C 
BRANCH  22  23
ATOM     23  C   UNL d   1     129.195 114.330 168.988  0.00  0.00     0.000 C 
BRANCH  23  24
ATOM     24  C   UNL d   1     130.077 113.080 168.879  0.00  0.00     0.000 C 
BRANCH  24  25
ATOM     25  C   UNL d   1     131.568 113.346 168.605  0.00  0.00     0.000 C 
ATOM     26  C   UNL d   1     132.439 113.022 169.823  0.00  0.00     0.000 C 
ATOM     27  C   UNL d   1     132.037 112.525 167.401  0.00  0.00     0.000 C 
ENDBRANCH  24  25
ENDBRANCH  23  24
ENDBRANCH  22  23
ENDBRANCH  20  22
ENDBRANCH   5  20
BRANCH  19  28
ATOM     28  O   UNL d   1     128.877 127.777 172.529  0.00  0.00    -0.385 OA
ATOM     29  H   UNL d   1     128.059 128.305 172.493  0.00  0.00     0.210 HD
ENDBRANCH  19  28
TORSDOF 6
ENDMDL
MODEL 17
REMARK VINA RESULT:    -7.135     36.335     40.232
REMARK INTER + INTRA:         -10.164
REMARK INTER:                  -8.764
REMARK INTRA:                  -1.400
REMARK UNBOUND:                -0.735
REMARK  6 active torsions:
REMARK  status: ('A' for Active; 'I' for Inactive)
REMARK    1  A    between atoms: O_1  and  C_22 
REMARK    2  A    between atoms: C_6  and  C_13 
REMARK    3  A    between atoms: C_13  and  C_21 
REMARK    4  A    between atoms: C_21  and  C_24 
REMARK    5  A    between atoms: C_24  and  C_25 
REMARK    6  A    between atoms: C_25  and  C_26 
ROOT
ATOM      1  C   UNL d   1     144.265 141.568 125.345  0.00  0.00     0.000 C 
ATOM      2  C   UNL d   1     145.124 142.314 124.292  0.00  0.00     0.000 C 
ATOM      3  C   UNL d   1     144.881 143.824 124.309  0.00  0.00     0.005 C 
ATOM      4  C   UNL d   1     145.243 144.400 125.708  0.00  0.00     0.004 C 
ATOM      5  C   UNL d   1     144.581 140.079 124.992  0.00  0.00     0.000 C 
ATOM      6  C   UNL d   1     144.814 142.033 126.707  0.00  0.00     0.000 C 
ATOM      7  C   UNL d   1     144.893 145.940 125.798  0.00  0.00     0.015 C 
ATOM      8  C   UNL d   1     144.853 141.561 123.003  0.00  0.00     0.000 C 
ATOM      9  C   UNL d   1     144.684 143.556 126.889  0.00  0.00     0.000 C 
ATOM     10  C   UNL d   1     144.793 140.097 123.448  0.00  0.00     0.000 C 
ATOM     11  C   UNL d   1     145.680 144.546 123.214  0.00  0.00     0.025 C 
ATOM     12  C   UNL d   1     142.755 141.885 125.200  0.00  0.00     0.000 C 
ATOM     13  C   UNL d   1     145.308 146.668 124.512  0.00  0.00    -0.047 C 
ATOM     14  C   UNL d   1     145.678 146.552 126.995  0.00  0.00     0.006 C 
ATOM     15  C   UNL d   1     145.676 146.033 123.387  0.00  0.00    -0.035 C 
ATOM     16  C   UNL d   1     143.375 146.159 126.013  0.00  0.00     0.004 C 
ATOM     17  C   UNL d   1     145.303 148.184 124.560  0.00  0.00     0.051 C 
ATOM     18  C   UNL d   1     145.629 148.080 127.060  0.00  0.00     0.030 C 
ATOM     19  C   UNL d   1     146.096 148.714 125.753  0.00  0.00     0.115 C 
ENDROOT
BRANCH   5  20
ATOM     20  C   UNL d   1     143.591 138.944 125.425  0.00  0.00     0.000 C 
ATOM     21  C   UNL d   1     144.189 138.000 126.475  0.00  0.00     0.000 C 
BRANCH  20  22
ATOM     22  C   UNL d   1     143.132 138.152 124.167  0.00  0.00     0.000 C 
BRANCH  22  23
ATOM     23  C   UNL d   1     141.716 137.556 124.170  0.00  0.00     0.000 C 
BRANCH  23  24
ATOM     24  C   UNL d   1     140.557 138.559 124.233  0.00  0.00     0.000 C 
BRANCH  24  25
ATOM     25  C   UNL d   1     139.739 138.543 125.537  0.00  0.00     0.000 C 
ATOM     26  C   UNL d   1     139.982 137.266 126.347  0.00  0.00     0.000 C 
ATOM     27  C   UNL d   1     140.080 139.769 126.388  0.00  0.00     0.000 C 
ENDBRANCH  24  25
ENDBRANCH  23  24
ENDBRANCH  22  23
ENDBRANCH  20  22
ENDBRANCH   5  20
BRANCH  19  28
ATOM     28  O   UNL d   1     145.924 150.128 125.826  0.00  0.00    -0.385 OA
ATOM     29  H   UNL d   1     145.442 150.322 126.650  0.00  0.00     0.210 HD
ENDBRANCH  19  28
TORSDOF 6
ENDMDL
MODEL 18
REMARK VINA RESULT:    -7.120     14.125     16.607
REMARK INTER + INTRA:         -10.145
REMARK INTER:                  -8.640
REMARK INTRA:                  -1.505
REMARK UNBOUND:                -0.735
REMARK  6 active torsions:
REMARK  status: ('A' for Active; 'I' for Inactive)
REMARK    1  A    between atoms: O_1  and  C_22 
REMARK    2  A    between atoms: C_6  and  C_13 
REMARK    3  A    between atoms: C_13  and  C_21 
REMARK    4  A    between atoms: C_21  and  C_24 
REMARK    5  A    between atoms: C_24  and  C_25 
REMARK    6  A    between atoms: C_25  and  C_26 
ROOT
ATOM      1  C   UNL d   1     127.623 144.474 169.191  0.00  0.00     0.000 C 
ATOM      2  C   UNL d   1     126.803 143.639 170.207  0.00  0.00     0.000 C 
ATOM      3  C   UNL d   1     127.696 142.878 171.189  0.00  0.00     0.005 C 
ATOM      4  C   UNL d   1     128.566 143.884 171.997  0.00  0.00     0.004 C 
ATOM      5  C   UNL d   1     126.495 144.986 168.240  0.00  0.00     0.000 C 
ATOM      6  C   UNL d   1     128.297 145.574 170.034  0.00  0.00     0.000 C 
ATOM      7  C   UNL d   1     129.586 143.126 172.939  0.00  0.00     0.015 C 
ATOM      8  C   UNL d   1     125.854 142.837 169.335  0.00  0.00     0.000 C 
ATOM      9  C   UNL d   1     129.220 144.986 171.115  0.00  0.00     0.000 C 
ATOM     10  C   UNL d   1     125.454 143.826 168.238  0.00  0.00     0.000 C 
ATOM     11  C   UNL d   1     126.879 141.996 172.143  0.00  0.00     0.025 C 
ATOM     12  C   UNL d   1     128.668 143.616 168.435  0.00  0.00     0.000 C 
ATOM     13  C   UNL d   1     128.906 141.935 173.629  0.00  0.00    -0.047 C 
ATOM     14  C   UNL d   1     130.079 144.121 174.029  0.00  0.00     0.006 C 
ATOM     15  C   UNL d   1     127.698 141.466 173.277  0.00  0.00    -0.035 C 
ATOM     16  C   UNL d   1     130.802 142.596 172.139  0.00  0.00     0.004 C 
ATOM     17  C   UNL d   1     129.667 141.291 174.773  0.00  0.00     0.051 C 
ATOM     18  C   UNL d   1     130.884 143.469 175.155  0.00  0.00     0.030 C 
ATOM     19  C   UNL d   1     130.113 142.323 175.806  0.00  0.00     0.115 C 
ENDROOT
BRANCH   5  20
ATOM     20  C   UNL d   1     126.846 145.448 166.784  0.00  0.00     0.000 C 
ATOM     21  C   UNL d   1     126.877 146.974 166.634  0.00  0.00     0.000 C 
BRANCH  20  22
ATOM     22  C   UNL d   1     125.837 144.814 165.783  0.00  0.00     0.000 C 
BRANCH  22  23
ATOM     23  C   UNL d   1     126.389 143.864 164.711  0.00  0.00     0.000 C 
BRANCH  23  24
ATOM     24  C   UNL d   1     127.365 142.785 165.198  0.00  0.00     0.000 C 
BRANCH  24  25
ATOM     25  C   UNL d   1     128.728 142.755 164.482  0.00  0.00     0.000 C 
ATOM     26  C   UNL d   1     129.284 144.164 164.253  0.00  0.00     0.000 C 
ATOM     27  C   UNL d   1     129.730 141.928 165.291  0.00  0.00     0.000 C 
ENDBRANCH  24  25
ENDBRANCH  23  24
ENDBRANCH  22  23
ENDBRANCH  20  22
ENDBRANCH   5  20
BRANCH  19  28
ATOM     28  O   UNL d   1     130.947 141.679 176.768  0.00  0.00    -0.385 OA
ATOM     29  H   UNL d   1     131.793 141.473 176.329  0.00  0.00     0.210 HD
ENDBRANCH  19  28
TORSDOF 6
ENDMDL
MODEL 19
REMARK VINA RESULT:    -7.102     41.108     44.038
REMARK INTER + INTRA:         -10.120
REMARK INTER:                  -8.770
REMARK INTRA:                  -1.350
REMARK UNBOUND:                -0.735
REMARK  6 active torsions:
REMARK  status: ('A' for Active; 'I' for Inactive)
REMARK    1  A    between atoms: O_1  and  C_22 
REMARK    2  A    between atoms: C_6  and  C_13 
REMARK    3  A    between atoms: C_13  and  C_21 
REMARK    4  A    between atoms: C_21  and  C_24 
REMARK    5  A    between atoms: C_24  and  C_25 
REMARK    6  A    between atoms: C_25  and  C_26 
ROOT
ATOM      1  C   UNL d   1     149.096 152.518 129.245  0.00  0.00     0.000 C 
ATOM      2  C   UNL d   1     147.802 151.969 128.591  0.00  0.00     0.000 C 
ATOM      3  C   UNL d   1     147.755 152.233 127.085  0.00  0.00     0.005 C 
ATOM      4  C   UNL d   1     148.965 151.543 126.391  0.00  0.00     0.004 C 
ATOM      5  C   UNL d   1     148.799 152.268 130.758  0.00  0.00     0.000 C 
ATOM      6  C   UNL d   1     150.232 151.653 128.664  0.00  0.00     0.000 C 
ATOM      7  C   UNL d   1     149.014 151.894 124.849  0.00  0.00     0.015 C 
ATOM      8  C   UNL d   1     146.690 152.540 129.452  0.00  0.00     0.000 C 
ATOM      9  C   UNL d   1     150.315 151.767 127.132  0.00  0.00     0.000 C 
ATOM     10  C   UNL d   1     147.255 152.453 130.872  0.00  0.00     0.000 C 
ATOM     11  C   UNL d   1     146.438 151.754 126.459  0.00  0.00     0.025 C 
ATOM     12  C   UNL d   1     149.313 154.022 128.942  0.00  0.00     0.000 C 
ATOM     13  C   UNL d   1     147.608 151.833 124.234  0.00  0.00    -0.047 C 
ATOM     14  C   UNL d   1     149.918 150.846 124.137  0.00  0.00     0.006 C 
ATOM     15  C   UNL d   1     146.483 151.747 124.963  0.00  0.00    -0.035 C 
ATOM     16  C   UNL d   1     149.587 153.313 124.614  0.00  0.00     0.004 C 
ATOM     17  C   UNL d   1     147.532 151.860 122.719  0.00  0.00     0.051 C 
ATOM     18  C   UNL d   1     149.867 150.911 122.609  0.00  0.00     0.030 C 
ATOM     19  C   UNL d   1     148.436 150.804 122.089  0.00  0.00     0.115 C 
ENDROOT
BRANCH   5  20
ATOM     20  C   UNL d   1     149.561 153.091 131.853  0.00  0.00     0.000 C 
ATOM     21  C   UNL d   1     150.582 152.249 132.628  0.00  0.00     0.000 C 
BRANCH  20  22
ATOM     22  C   UNL d   1     148.529 153.740 132.822  0.00  0.00     0.000 C 
BRANCH  22  23
ATOM     23  C   UNL d   1     148.467 155.273 132.882  0.00  0.00     0.000 C 
BRANCH  23  24
ATOM     24  C   UNL d   1     147.065 155.896 132.885  0.00  0.00     0.000 C 
BRANCH  24  25
ATOM     25  C   UNL d   1     146.430 156.101 131.498  0.00  0.00     0.000 C 
ATOM     26  C   UNL d   1     145.096 155.359 131.366  0.00  0.00     0.000 C 
ATOM     27  C   UNL d   1     146.220 157.593 131.231  0.00  0.00     0.000 C 
ENDBRANCH  24  25
ENDBRANCH  23  24
ENDBRANCH  22  23
ENDBRANCH  20  22
ENDBRANCH   5  20
BRANCH  19  28
ATOM     28  O   UNL d   1     148.433 150.983 120.673  0.00  0.00    -0.385 OA
ATOM     29  H   UNL d   1     149.272 150.622 120.332  0.00  0.00     0.210 HD
ENDBRANCH  19  28
TORSDOF 6
ENDMDL
MODEL 20
REMARK VINA RESULT:    -7.030     55.314     59.881
REMARK INTER + INTRA:         -10.025
REMARK INTER:                  -8.752
REMARK INTRA:                  -1.273
REMARK UNBOUND:                -0.735
REMARK  6 active torsions:
REMARK  status: ('A' for Active; 'I' for Inactive)
REMARK    1  A    between atoms: O_1  and  C_22 
REMARK    2  A    between atoms: C_6  and  C_13 
REMARK    3  A    between atoms: C_13  and  C_21 
REMARK    4  A    between atoms: C_21  and  C_24 
REMARK    5  A    between atoms: C_24  and  C_25 
REMARK    6  A    between atoms: C_25  and  C_26 
ROOT
ATOM      1  C   UNL d   1     157.607  98.238 118.219  0.00  0.00     0.000 C 
ATOM      2  C   UNL d   1     156.248  98.772 117.699  0.00  0.00     0.000 C 
ATOM      3  C   UNL d   1     155.321  99.205 118.836  0.00  0.00     0.005 C 
ATOM      4  C   UNL d   1     155.992 100.342 119.659  0.00  0.00     0.004 C 
ATOM      5  C   UNL d   1     158.257  97.726 116.894  0.00  0.00     0.000 C 
ATOM      6  C   UNL d   1     158.304  99.464 118.841  0.00  0.00     0.000 C 
ATOM      7  C   UNL d   1     155.112 100.733 120.914  0.00  0.00     0.015 C 
ATOM      8  C   UNL d   1     155.766  97.682 116.759  0.00  0.00     0.000 C 
ATOM      9  C   UNL d   1     157.485 100.064 119.997  0.00  0.00     0.000 C 
ATOM     10  C   UNL d   1     157.045  97.228 116.051  0.00  0.00     0.000 C 
ATOM     11  C   UNL d   1     153.950  99.661 118.317  0.00  0.00     0.025 C 
ATOM     12  C   UNL d   1     157.433  97.097 119.252  0.00  0.00     0.000 C 
ATOM     13  C   UNL d   1     153.626 100.802 120.535  0.00  0.00    -0.047 C 
ATOM     14  C   UNL d   1     155.566 102.136 121.413  0.00  0.00     0.006 C 
ATOM     15  C   UNL d   1     153.136 100.344 119.371  0.00  0.00    -0.035 C 
ATOM     16  C   UNL d   1     155.275  99.702 122.058  0.00  0.00     0.004 C 
ATOM     17  C   UNL d   1     152.698 101.441 121.550  0.00  0.00     0.051 C 
ATOM     18  C   UNL d   1     154.647 102.752 122.470  0.00  0.00     0.030 C 
ATOM     19  C   UNL d   1     153.200 102.815 121.989  0.00  0.00     0.115 C 
ENDROOT
BRANCH   5  20
ATOM     20  C   UNL d   1     159.403  96.657 116.944  0.00  0.00     0.000 C 
ATOM     21  C   UNL d   1     160.792  97.261 116.710  0.00  0.00     0.000 C 
BRANCH  20  22
ATOM     22  C   UNL d   1     159.106  95.534 115.909  0.00  0.00     0.000 C 
BRANCH  22  23
ATOM     23  C   UNL d   1     159.562  94.107 116.247  0.00  0.00     0.000 C 
BRANCH  23  24
ATOM     24  C   UNL d   1     159.409  93.674 117.711  0.00  0.00     0.000 C 
BRANCH  24  25
ATOM     25  C   UNL d   1     157.963  93.424 118.177  0.00  0.00     0.000 C 
ATOM     26  C   UNL d   1     157.089  92.863 117.052  0.00  0.00     0.000 C 
ATOM     27  C   UNL d   1     157.953  92.463 119.368  0.00  0.00     0.000 C 
ENDBRANCH  24  25
ENDBRANCH  23  24
ENDBRANCH  22  23
ENDBRANCH  20  22
ENDBRANCH   5  20
BRANCH  19  28
ATOM     28  O   UNL d   1     152.371 103.290 123.048  0.00  0.00    -0.385 OA
ATOM     29  H   UNL d   1     151.919 102.517 123.435  0.00  0.00     0.210 HD
ENDBRANCH  19  28
TORSDOF 6
ENDMDL
