MODEL 1
REMARK VINA RESULT:    -8.045      0.000      0.000
REMARK INTER + INTRA:         -12.353
REMARK INTER:                 -10.632
REMARK INTRA:                  -1.721
REMARK UNBOUND:                -1.721
REMARK  6 active torsions:
REMARK  status: ('A' for Active; 'I' for Inactive)
REMARK    1  A    between atoms: O_1  and  C_22 
REMARK    2  A    between atoms: C_6  and  C_13 
REMARK    3  A    between atoms: C_13  and  C_21 
REMARK    4  A    between atoms: C_21  and  C_24 
REMARK    5  A    between atoms: C_24  and  C_25 
REMARK    6  A    between atoms: C_25  and  C_26 
ROOT
ATOM      1  C   UNL d   1     126.783 125.764 171.428  0.00  0.00     0.000 C 
ATOM      2  C   UNL d   1     128.249 126.074 171.030  0.00  0.00     0.000 C 
ATOM      3  C   UNL d   1     129.157 124.849 171.159  0.00  0.00     0.005 C 
ATOM      4  C   UNL d   1     128.644 123.713 170.227  0.00  0.00     0.004 C 
ATOM      5  C   UNL d   1     126.147 127.189 171.368  0.00  0.00     0.000 C 
ATOM      6  C   UNL d   1     126.276 124.790 170.347  0.00  0.00     0.000 C 
ATOM      7  C   UNL d   1     129.490 122.391 170.422  0.00  0.00     0.015 C 
ATOM      8  C   UNL d   1     128.593 127.307 171.845  0.00  0.00     0.000 C 
ATOM      9  C   UNL d   1     127.105 123.495 170.305  0.00  0.00     0.000 C 
ATOM     10  C   UNL d   1     127.307 128.135 171.802  0.00  0.00     0.000 C 
ATOM     11  C   UNL d   1     130.620 125.182 170.835  0.00  0.00     0.025 C 
ATOM     12  C   UNL d   1     126.678 125.147 172.845  0.00  0.00     0.000 C 
ATOM     13  C   UNL d   1     130.987 122.714 170.525  0.00  0.00    -0.047 C 
ATOM     14  C   UNL d   1     129.260 121.475 169.185  0.00  0.00     0.006 C 
ATOM     15  C   UNL d   1     131.467 123.958 170.684  0.00  0.00    -0.035 C 
ATOM     16  C   UNL d   1     129.065 121.637 171.706  0.00  0.00     0.004 C 
ATOM     17  C   UNL d   1     131.941 121.539 170.424  0.00  0.00     0.051 C 
ATOM     18  C   UNL d   1     130.198 120.268 169.115  0.00  0.00     0.030 C 
ATOM     19  C   UNL d   1     131.663 120.690 169.186  0.00  0.00     0.115 C 
ENDROOT
BRANCH   5  20
ATOM     20  C   UNL d   1     124.828 127.493 172.160  0.00  0.00     0.000 C 
ATOM     21  C   UNL d   1     123.563 127.212 171.340  0.00  0.00     0.000 C 
BRANCH  20  22
ATOM     22  C   UNL d   1     124.851 128.969 172.653  0.00  0.00     0.000 C 
BRANCH  22  23
ATOM     23  C   UNL d   1     124.715 129.224 174.162  0.00  0.00     0.000 C 
BRANCH  23  24
ATOM     24  C   UNL d   1     126.024 129.397 174.941  0.00  0.00     0.000 C 
BRANCH  24  25
ATOM     25  C   UNL d   1     126.424 128.208 175.834  0.00  0.00     0.000 C 
ATOM     26  C   UNL d   1     125.375 127.093 175.803  0.00  0.00     0.000 C 
ATOM     27  C   UNL d   1     127.782 127.654 175.395  0.00  0.00     0.000 C 
ENDBRANCH  24  25
ENDBRANCH  23  24
ENDBRANCH  22  23
ENDBRANCH  20  22
ENDBRANCH   5  20
BRANCH  19  28
ATOM     28  O   UNL d   1     132.488 119.527 169.232  0.00  0.00    -0.385 OA
ATOM     29  H   UNL d   1     133.416 119.825 169.206  0.00  0.00     0.210 HD
ENDBRANCH  19  28
TORSDOF 6
ENDMDL
MODEL 2
REMARK VINA RESULT:    -7.742      1.354      3.315
REMARK INTER + INTRA:         -11.952
REMARK INTER:                 -10.297
REMARK INTRA:                  -1.655
REMARK UNBOUND:                -1.721
REMARK  6 active torsions:
REMARK  status: ('A' for Active; 'I' for Inactive)
REMARK    1  A    between atoms: O_1  and  C_22 
REMARK    2  A    between atoms: C_6  and  C_13 
REMARK    3  A    between atoms: C_13  and  C_21 
REMARK    4  A    between atoms: C_21  and  C_24 
REMARK    5  A    between atoms: C_24  and  C_25 
REMARK    6  A    between atoms: C_25  and  C_26 
ROOT
ATOM      1  C   UNL d   1     128.504 126.479 173.057  0.00  0.00     0.000 C 
ATOM      2  C   UNL d   1     128.535 125.051 173.658  0.00  0.00     0.000 C 
ATOM      3  C   UNL d   1     128.844 123.985 172.606  0.00  0.00     0.005 C 
ATOM      4  C   UNL d   1     130.237 124.260 171.969  0.00  0.00     0.004 C 
ATOM      5  C   UNL d   1     128.012 127.312 174.284  0.00  0.00     0.000 C 
ATOM      6  C   UNL d   1     129.958 126.764 172.632  0.00  0.00     0.000 C 
ATOM      7  C   UNL d   1     130.537 123.245 170.793  0.00  0.00     0.015 C 
ATOM      8  C   UNL d   1     127.226 124.948 174.418  0.00  0.00     0.000 C 
ATOM      9  C   UNL d   1     130.459 125.753 171.587  0.00  0.00     0.000 C 
ATOM     10  C   UNL d   1     127.063 126.335 175.042  0.00  0.00     0.000 C 
ATOM     11  C   UNL d   1     128.800 122.567 173.194  0.00  0.00     0.025 C 
ATOM     12  C   UNL d   1     127.528 126.589 171.859  0.00  0.00     0.000 C 
ATOM     13  C   UNL d   1     130.114 121.822 171.183  0.00  0.00    -0.047 C 
ATOM     14  C   UNL d   1     132.070 123.254 170.518  0.00  0.00     0.006 C 
ATOM     15  C   UNL d   1     129.365 121.542 172.262  0.00  0.00    -0.035 C 
ATOM     16  C   UNL d   1     129.781 123.642 169.502  0.00  0.00     0.004 C 
ATOM     17  C   UNL d   1     130.599 120.702 170.283  0.00  0.00     0.051 C 
ATOM     18  C   UNL d   1     132.542 122.147 169.574  0.00  0.00     0.030 C 
ATOM     19  C   UNL d   1     132.109 120.767 170.063  0.00  0.00     0.115 C 
ENDROOT
BRANCH   5  20
ATOM     20  C   UNL d   1     127.341 128.712 174.063  0.00  0.00     0.000 C 
ATOM     21  C   UNL d   1     128.279 129.880 174.393  0.00  0.00     0.000 C 
BRANCH  20  22
ATOM     22  C   UNL d   1     126.035 128.797 174.904  0.00  0.00     0.000 C 
BRANCH  22  23
ATOM     23  C   UNL d   1     124.734 129.166 174.175  0.00  0.00     0.000 C 
BRANCH  23  24
ATOM     24  C   UNL d   1     124.688 128.860 172.673  0.00  0.00     0.000 C 
BRANCH  24  25
ATOM     25  C   UNL d   1     123.704 127.752 172.255  0.00  0.00     0.000 C 
ATOM     26  C   UNL d   1     123.924 127.310 170.805  0.00  0.00     0.000 C 
ATOM     27  C   UNL d   1     123.839 126.548 173.189  0.00  0.00     0.000 C 
ENDBRANCH  24  25
ENDBRANCH  23  24
ENDBRANCH  22  23
ENDBRANCH  20  22
ENDBRANCH   5  20
BRANCH  19  28
ATOM     28  O   UNL d   1     132.474 119.786 169.094  0.00  0.00    -0.385 OA
ATOM     29  H   UNL d   1     133.400 119.956 168.841  0.00  0.00     0.210 HD
ENDBRANCH  19  28
TORSDOF 6
ENDMDL
MODEL 3
REMARK VINA RESULT:    -7.640      1.499      2.422
REMARK INTER + INTRA:         -11.817
REMARK INTER:                 -10.598
REMARK INTRA:                  -1.219
REMARK UNBOUND:                -1.721
REMARK  6 active torsions:
REMARK  status: ('A' for Active; 'I' for Inactive)
REMARK    1  A    between atoms: O_1  and  C_22 
REMARK    2  A    between atoms: C_6  and  C_13 
REMARK    3  A    between atoms: C_13  and  C_21 
REMARK    4  A    between atoms: C_21  and  C_24 
REMARK    5  A    between atoms: C_24  and  C_25 
REMARK    6  A    between atoms: C_25  and  C_26 
ROOT
ATOM      1  C   UNL d   1     126.978 124.388 172.745  0.00  0.00     0.000 C 
ATOM      2  C   UNL d   1     128.196 125.231 172.289  0.00  0.00     0.000 C 
ATOM      3  C   UNL d   1     129.384 124.360 171.879  0.00  0.00     0.005 C 
ATOM      4  C   UNL d   1     128.978 123.438 170.693  0.00  0.00     0.004 C 
ATOM      5  C   UNL d   1     126.010 125.505 173.251  0.00  0.00     0.000 C 
ATOM      6  C   UNL d   1     126.502 123.657 171.474  0.00  0.00     0.000 C 
ATOM      7  C   UNL d   1     130.147 122.439 170.321  0.00  0.00     0.015 C 
ATOM      8  C   UNL d   1     128.393 126.223 173.420  0.00  0.00     0.000 C 
ATOM      9  C   UNL d   1     127.597 122.747 170.891  0.00  0.00     0.000 C 
ATOM     10  C   UNL d   1     126.965 126.595 173.825  0.00  0.00     0.000 C 
ATOM     11  C   UNL d   1     130.610 125.202 171.501  0.00  0.00     0.025 C 
ATOM     12  C   UNL d   1     127.344 123.390 173.872  0.00  0.00     0.000 C 
ATOM     13  C   UNL d   1     131.502 123.162 170.333  0.00  0.00    -0.047 C 
ATOM     14  C   UNL d   1     129.885 121.891 168.887  0.00  0.00     0.006 C 
ATOM     15  C   UNL d   1     131.681 124.393 170.838  0.00  0.00    -0.035 C 
ATOM     16  C   UNL d   1     130.216 121.258 171.319  0.00  0.00     0.004 C 
ATOM     17  C   UNL d   1     132.671 122.415 169.720  0.00  0.00     0.051 C 
ATOM     18  C   UNL d   1     131.054 121.102 168.295  0.00  0.00     0.030 C 
ATOM     19  C   UNL d   1     132.347 121.913 168.314  0.00  0.00     0.115 C 
ENDROOT
BRANCH   5  20
ATOM     20  C   UNL d   1     124.865 125.151 174.262  0.00  0.00     0.000 C 
ATOM     21  C   UNL d   1     123.628 124.558 173.577  0.00  0.00     0.000 C 
BRANCH  20  22
ATOM     22  C   UNL d   1     124.488 126.420 175.080  0.00  0.00     0.000 C 
BRANCH  22  23
ATOM     23  C   UNL d   1     123.566 127.454 174.417  0.00  0.00     0.000 C 
BRANCH  23  24
ATOM     24  C   UNL d   1     124.249 128.697 173.833  0.00  0.00     0.000 C 
BRANCH  24  25
ATOM     25  C   UNL d   1     124.346 128.737 172.297  0.00  0.00     0.000 C 
ATOM     26  C   UNL d   1     123.534 127.614 171.644  0.00  0.00     0.000 C 
ATOM     27  C   UNL d   1     123.865 130.093 171.775  0.00  0.00     0.000 C 
ENDBRANCH  24  25
ENDBRANCH  23  24
ENDBRANCH  22  23
ENDBRANCH  20  22
ENDBRANCH   5  20
BRANCH  19  28
ATOM     28  O   UNL d   1     133.424 121.096 167.859  0.00  0.00    -0.385 OA
ATOM     29  H   UNL d   1     133.110 120.173 167.856  0.00  0.00     0.210 HD
ENDBRANCH  19  28
TORSDOF 6
ENDMDL
MODEL 4
REMARK VINA RESULT:    -7.505     29.189     32.311
REMARK INTER + INTRA:         -11.638
REMARK INTER:                 -10.826
REMARK INTRA:                  -0.812
REMARK UNBOUND:                -1.721
REMARK  6 active torsions:
REMARK  status: ('A' for Active; 'I' for Inactive)
REMARK    1  A    between atoms: O_1  and  C_22 
REMARK    2  A    between atoms: C_6  and  C_13 
REMARK    3  A    between atoms: C_13  and  C_21 
REMARK    4  A    between atoms: C_21  and  C_24 
REMARK    5  A    between atoms: C_24  and  C_25 
REMARK    6  A    between atoms: C_25  and  C_26 
ROOT
ATOM      1  C   UNL d   1     126.950 141.604 197.916  0.00  0.00     0.000 C 
ATOM      2  C   UNL d   1     125.951 140.867 196.988  0.00  0.00     0.000 C 
ATOM      3  C   UNL d   1     125.035 139.917 197.760  0.00  0.00     0.005 C 
ATOM      4  C   UNL d   1     124.205 140.717 198.806  0.00  0.00     0.004 C 
ATOM      5  C   UNL d   1     127.841 142.348 196.871  0.00  0.00     0.000 C 
ATOM      6  C   UNL d   1     126.076 142.529 198.786  0.00  0.00     0.000 C 
ATOM      7  C   UNL d   1     123.333 139.749 199.703  0.00  0.00     0.015 C 
ATOM      8  C   UNL d   1     126.831 140.284 195.898  0.00  0.00     0.000 C 
ATOM      9  C   UNL d   1     125.054 141.737 199.619  0.00  0.00     0.000 C 
ATOM     10  C   UNL d   1     127.867 141.382 195.648  0.00  0.00     0.000 C 
ATOM     11  C   UNL d   1     124.100 139.136 196.826  0.00  0.00     0.025 C 
ATOM     12  C   UNL d   1     127.779 140.623 198.783  0.00  0.00     0.000 C 
ATOM     13  C   UNL d   1     122.680 138.655 198.845  0.00  0.00    -0.047 C 
ATOM     14  C   UNL d   1     122.211 140.588 200.381  0.00  0.00     0.006 C 
ATOM     15  C   UNL d   1     123.017 138.416 197.567  0.00  0.00    -0.035 C 
ATOM     16  C   UNL d   1     124.194 139.064 200.792  0.00  0.00     0.004 C 
ATOM     17  C   UNL d   1     121.593 137.833 199.510  0.00  0.00     0.051 C 
ATOM     18  C   UNL d   1     121.143 139.751 201.087  0.00  0.00     0.030 C 
ATOM     19  C   UNL d   1     120.525 138.720 200.148  0.00  0.00     0.115 C 
ENDROOT
BRANCH   5  20
ATOM     20  C   UNL d   1     129.283 142.820 197.264  0.00  0.00     0.000 C 
ATOM     21  C   UNL d   1     130.322 141.695 197.175  0.00  0.00     0.000 C 
BRANCH  20  22
ATOM     22  C   UNL d   1     129.254 143.434 198.693  0.00  0.00     0.000 C 
BRANCH  22  23
ATOM     23  C   UNL d   1     130.188 142.831 199.753  0.00  0.00     0.000 C 
BRANCH  23  24
ATOM     24  C   UNL d   1     129.770 143.026 201.216  0.00  0.00     0.000 C 
BRANCH  24  25
ATOM     25  C   UNL d   1     128.252 143.065 201.470  0.00  0.00     0.000 C 
ATOM     26  C   UNL d   1     127.785 141.881 202.321  0.00  0.00     0.000 C 
ATOM     27  C   UNL d   1     127.867 144.379 202.155  0.00  0.00     0.000 C 
ENDBRANCH  24  25
ENDBRANCH  23  24
ENDBRANCH  22  23
ENDBRANCH  20  22
ENDBRANCH   5  20
BRANCH  19  28
ATOM     28  O   UNL d   1     119.621 137.894 200.881  0.00  0.00    -0.385 OA
ATOM     29  H   UNL d   1     119.001 138.483 201.348  0.00  0.00     0.210 HD
ENDBRANCH  19  28
TORSDOF 6
ENDMDL
MODEL 5
REMARK VINA RESULT:    -7.196     27.908     30.773
REMARK INTER + INTRA:         -11.230
REMARK INTER:                  -9.709
REMARK INTRA:                  -1.521
REMARK UNBOUND:                -1.721
REMARK  6 active torsions:
REMARK  status: ('A' for Active; 'I' for Inactive)
REMARK    1  A    between atoms: O_1  and  C_22 
REMARK    2  A    between atoms: C_6  and  C_13 
REMARK    3  A    between atoms: C_13  and  C_21 
REMARK    4  A    between atoms: C_21  and  C_24 
REMARK    5  A    between atoms: C_24  and  C_25 
REMARK    6  A    between atoms: C_25  and  C_26 
ROOT
ATOM      1  C   UNL d   1     125.619 141.047 198.223  0.00  0.00     0.000 C 
ATOM      2  C   UNL d   1     124.795 140.810 196.931  0.00  0.00     0.000 C 
ATOM      3  C   UNL d   1     124.295 139.369 196.818  0.00  0.00     0.005 C 
ATOM      4  C   UNL d   1     123.379 139.032 198.029  0.00  0.00     0.004 C 
ATOM      5  C   UNL d   1     126.128 142.505 197.993  0.00  0.00     0.000 C 
ATOM      6  C   UNL d   1     124.604 140.897 199.373  0.00  0.00     0.000 C 
ATOM      7  C   UNL d   1     122.938 137.513 198.006  0.00  0.00     0.015 C 
ATOM      8  C   UNL d   1     125.690 141.345 195.828  0.00  0.00     0.000 C 
ATOM      9  C   UNL d   1     123.962 139.499 199.395  0.00  0.00     0.000 C 
ATOM     10  C   UNL d   1     126.314 142.597 196.448  0.00  0.00     0.000 C 
ATOM     11  C   UNL d   1     123.545 139.124 195.501  0.00  0.00     0.025 C 
ATOM     12  C   UNL d   1     126.791 140.043 198.363  0.00  0.00     0.000 C 
ATOM     13  C   UNL d   1     122.558 137.080 196.583  0.00  0.00    -0.047 C 
ATOM     14  C   UNL d   1     121.695 137.349 198.928  0.00  0.00     0.006 C 
ATOM     15  C   UNL d   1     122.814 137.818 195.491  0.00  0.00    -0.035 C 
ATOM     16  C   UNL d   1     124.076 136.590 198.509  0.00  0.00     0.004 C 
ATOM     17  C   UNL d   1     121.846 135.747 196.450  0.00  0.00     0.051 C 
ATOM     18  C   UNL d   1     121.009 135.986 198.819  0.00  0.00     0.030 C 
ATOM     19  C   UNL d   1     120.634 135.659 197.375  0.00  0.00     0.115 C 
ENDROOT
BRANCH   5  20
ATOM     20  C   UNL d   1     127.395 143.023 198.758  0.00  0.00     0.000 C 
ATOM     21  C   UNL d   1     127.046 143.749 200.063  0.00  0.00     0.000 C 
BRANCH  20  22
ATOM     22  C   UNL d   1     128.225 143.944 197.818  0.00  0.00     0.000 C 
BRANCH  22  23
ATOM     23  C   UNL d   1     129.632 143.476 197.414  0.00  0.00     0.000 C 
BRANCH  23  24
ATOM     24  C   UNL d   1     129.922 141.979 197.578  0.00  0.00     0.000 C 
BRANCH  24  25
ATOM     25  C   UNL d   1     130.907 141.617 198.704  0.00  0.00     0.000 C 
ATOM     26  C   UNL d   1     131.431 142.861 199.427  0.00  0.00     0.000 C 
ATOM     27  C   UNL d   1     130.233 140.680 199.710  0.00  0.00     0.000 C 
ENDBRANCH  24  25
ENDBRANCH  23  24
ENDBRANCH  22  23
ENDBRANCH  20  22
ENDBRANCH   5  20
BRANCH  19  28
ATOM     28  O   UNL d   1     120.104 134.336 197.313  0.00  0.00    -0.385 OA
ATOM     29  H   UNL d   1     120.015 134.014 198.228  0.00  0.00     0.210 HD
ENDBRANCH  19  28
TORSDOF 6
ENDMDL
MODEL 6
REMARK VINA RESULT:    -7.098      2.596      5.330
REMARK INTER + INTRA:         -11.100
REMARK INTER:                  -9.537
REMARK INTRA:                  -1.563
REMARK UNBOUND:                -1.721
REMARK  6 active torsions:
REMARK  status: ('A' for Active; 'I' for Inactive)
REMARK    1  A    between atoms: O_1  and  C_22 
REMARK    2  A    between atoms: C_6  and  C_13 
REMARK    3  A    between atoms: C_13  and  C_21 
REMARK    4  A    between atoms: C_21  and  C_24 
REMARK    5  A    between atoms: C_24  and  C_25 
REMARK    6  A    between atoms: C_25  and  C_26 
ROOT
ATOM      1  C   UNL d   1     129.319 122.403 171.380  0.00  0.00     0.000 C 
ATOM      2  C   UNL d   1     128.927 121.143 172.194  0.00  0.00     0.000 C 
ATOM      3  C   UNL d   1     128.766 119.907 171.307  0.00  0.00     0.005 C 
ATOM      4  C   UNL d   1     130.106 119.601 170.580  0.00  0.00     0.004 C 
ATOM      5  C   UNL d   1     129.247 123.508 172.481  0.00  0.00     0.000 C 
ATOM      6  C   UNL d   1     130.740 122.112 170.857  0.00  0.00     0.000 C 
ATOM      7  C   UNL d   1     129.942 118.399 169.564  0.00  0.00     0.015 C 
ATOM      8  C   UNL d   1     127.733 121.598 173.012  0.00  0.00     0.000 C 
ATOM      9  C   UNL d   1     130.777 120.862 169.962  0.00  0.00     0.000 C 
ATOM     10  C   UNL d   1     128.100 123.027 173.420  0.00  0.00     0.000 C 
ATOM     11  C   UNL d   1     128.304 118.682 172.110  0.00  0.00     0.025 C 
ATOM     12  C   UNL d   1     128.331 122.683 170.219  0.00  0.00     0.000 C 
ATOM     13  C   UNL d   1     129.105 117.273 170.187  0.00  0.00    -0.047 C 
ATOM     14  C   UNL d   1     131.358 117.844 169.230  0.00  0.00     0.006 C 
ATOM     15  C   UNL d   1     128.407 117.411 171.326  0.00  0.00    -0.035 C 
ATOM     16  C   UNL d   1     129.247 118.857 168.259  0.00  0.00     0.004 C 
ATOM     17  C   UNL d   1     129.105 115.945 169.453  0.00  0.00     0.051 C 
ATOM     18  C   UNL d   1     131.346 116.528 168.450  0.00  0.00     0.030 C 
ATOM     19  C   UNL d   1     130.523 115.459 169.164  0.00  0.00     0.115 C 
ENDROOT
BRANCH   5  20
ATOM     20  C   UNL d   1     129.066 125.011 172.073  0.00  0.00     0.000 C 
ATOM     21  C   UNL d   1     130.294 125.869 172.398  0.00  0.00     0.000 C 
BRANCH  20  22
ATOM     22  C   UNL d   1     127.794 125.583 172.764  0.00  0.00     0.000 C 
BRANCH  22  23
ATOM     23  C   UNL d   1     126.634 126.040 171.867  0.00  0.00     0.000 C 
BRANCH  23  24
ATOM     24  C   UNL d   1     125.225 125.640 172.322  0.00  0.00     0.000 C 
BRANCH  24  25
ATOM     25  C   UNL d   1     124.526 124.580 171.451  0.00  0.00     0.000 C 
ATOM     26  C   UNL d   1     125.159 124.475 170.061  0.00  0.00     0.000 C 
ATOM     27  C   UNL d   1     124.570 123.216 172.145  0.00  0.00     0.000 C 
ENDBRANCH  24  25
ENDBRANCH  23  24
ENDBRANCH  22  23
ENDBRANCH  20  22
ENDBRANCH   5  20
BRANCH  19  28
ATOM     28  O   UNL d   1     130.450 114.293 168.345  0.00  0.00    -0.385 OA
ATOM     29  H   UNL d   1     131.248 113.761 168.522  0.00  0.00     0.210 HD
ENDBRANCH  19  28
TORSDOF 6
ENDMDL
MODEL 7
REMARK VINA RESULT:    -7.086      3.487      6.839
REMARK INTER + INTRA:         -11.085
REMARK INTER:                  -9.928
REMARK INTRA:                  -1.156
REMARK UNBOUND:                -1.721
REMARK  6 active torsions:
REMARK  status: ('A' for Active; 'I' for Inactive)
REMARK    1  A    between atoms: O_1  and  C_22 
REMARK    2  A    between atoms: C_6  and  C_13 
REMARK    3  A    between atoms: C_13  and  C_21 
REMARK    4  A    between atoms: C_21  and  C_24 
REMARK    5  A    between atoms: C_24  and  C_25 
REMARK    6  A    between atoms: C_25  and  C_26 
ROOT
ATOM      1  C   UNL d   1     129.840 120.760 170.539  0.00  0.00     0.000 C 
ATOM      2  C   UNL d   1     129.317 119.657 171.494  0.00  0.00     0.000 C 
ATOM      3  C   UNL d   1     129.113 118.320 170.779  0.00  0.00     0.005 C 
ATOM      4  C   UNL d   1     130.464 117.828 170.184  0.00  0.00     0.004 C 
ATOM      5  C   UNL d   1     129.792 122.014 171.470  0.00  0.00     0.000 C 
ATOM      6  C   UNL d   1     131.261 120.308 170.149  0.00  0.00     0.000 C 
ATOM      7  C   UNL d   1     130.266 116.507 169.337  0.00  0.00     0.015 C 
ATOM      8  C   UNL d   1     128.119 120.299 172.167  0.00  0.00     0.000 C 
ATOM      9  C   UNL d   1     131.255 118.943 169.439  0.00  0.00     0.000 C 
ATOM     10  C   UNL d   1     128.566 121.744 172.395  0.00  0.00     0.000 C 
ATOM     11  C   UNL d   1     128.525 117.254 171.714  0.00  0.00     0.025 C 
ATOM     12  C   UNL d   1     128.936 120.934 169.293  0.00  0.00     0.000 C 
ATOM     13  C   UNL d   1     129.320 115.537 170.058  0.00  0.00    -0.047 C 
ATOM     14  C   UNL d   1     131.653 115.821 169.169  0.00  0.00     0.006 C 
ATOM     15  C   UNL d   1     128.576 115.880 171.122  0.00  0.00    -0.035 C 
ATOM     16  C   UNL d   1     129.674 116.818 167.940  0.00  0.00     0.004 C 
ATOM     17  C   UNL d   1     129.261 114.121 169.516  0.00  0.00     0.051 C 
ATOM     18  C   UNL d   1     131.587 114.410 168.580  0.00  0.00     0.030 C 
ATOM     19  C   UNL d   1     130.654 113.509 169.384  0.00  0.00     0.115 C 
ENDROOT
BRANCH   5  20
ATOM     20  C   UNL d   1     129.739 123.451 170.848  0.00  0.00     0.000 C 
ATOM     21  C   UNL d   1     131.117 124.122 170.781  0.00  0.00     0.000 C 
BRANCH  20  22
ATOM     22  C   UNL d   1     128.737 124.327 171.654  0.00  0.00     0.000 C 
BRANCH  22  23
ATOM     23  C   UNL d   1     127.563 124.960 170.892  0.00  0.00     0.000 C 
BRANCH  23  24
ATOM     24  C   UNL d   1     126.943 124.113 169.774  0.00  0.00     0.000 C 
BRANCH  24  25
ATOM     25  C   UNL d   1     125.408 124.173 169.675  0.00  0.00     0.000 C 
ATOM     26  C   UNL d   1     124.752 124.329 171.050  0.00  0.00     0.000 C 
ATOM     27  C   UNL d   1     124.984 125.328 168.765  0.00  0.00     0.000 C 
ENDBRANCH  24  25
ENDBRANCH  23  24
ENDBRANCH  22  23
ENDBRANCH  20  22
ENDBRANCH   5  20
BRANCH  19  28
ATOM     28  O   UNL d   1     130.540 112.245 168.731  0.00  0.00    -0.385 OA
ATOM     29  H   UNL d   1     131.405 111.802 168.800  0.00  0.00     0.210 HD
ENDBRANCH  19  28
TORSDOF 6
ENDMDL
MODEL 8
REMARK VINA RESULT:    -7.080     30.403     33.041
REMARK INTER + INTRA:         -11.077
REMARK INTER:                  -9.446
REMARK INTRA:                  -1.630
REMARK UNBOUND:                -1.721
REMARK  6 active torsions:
REMARK  status: ('A' for Active; 'I' for Inactive)
REMARK    1  A    between atoms: O_1  and  C_22 
REMARK    2  A    between atoms: C_6  and  C_13 
REMARK    3  A    between atoms: C_13  and  C_21 
REMARK    4  A    between atoms: C_21  and  C_24 
REMARK    5  A    between atoms: C_24  and  C_25 
REMARK    6  A    between atoms: C_25  and  C_26 
ROOT
ATOM      1  C   UNL d   1     105.958 146.548 185.060  0.00  0.00     0.000 C 
ATOM      2  C   UNL d   1     106.636 147.917 184.798  0.00  0.00     0.000 C 
ATOM      3  C   UNL d   1     107.614 147.864 183.623  0.00  0.00     0.005 C 
ATOM      4  C   UNL d   1     106.858 147.455 182.326  0.00  0.00     0.004 C 
ATOM      5  C   UNL d   1     105.172 146.848 186.376  0.00  0.00     0.000 C 
ATOM      6  C   UNL d   1     105.068 146.302 183.826  0.00  0.00     0.000 C 
ATOM      7  C   UNL d   1     107.861 147.276 181.115  0.00  0.00     0.015 C 
ATOM      8  C   UNL d   1     107.172 148.322 186.158  0.00  0.00     0.000 C 
ATOM      9  C   UNL d   1     105.890 146.253 182.526  0.00  0.00     0.000 C 
ATOM     10  C   UNL d   1     106.074 147.874 187.125  0.00  0.00     0.000 C 
ATOM     11  C   UNL d   1     108.336 149.203 183.417  0.00  0.00     0.025 C 
ATOM     12  C   UNL d   1     106.991 145.409 185.254  0.00  0.00     0.000 C 
ATOM     13  C   UNL d   1     108.902 148.404 181.101  0.00  0.00    -0.047 C 
ATOM     14  C   UNL d   1     107.044 147.332 179.791  0.00  0.00     0.006 C 
ATOM     15  C   UNL d   1     109.080 149.260 182.120  0.00  0.00    -0.035 C 
ATOM     16  C   UNL d   1     108.609 145.923 181.201  0.00  0.00     0.004 C 
ATOM     17  C   UNL d   1     109.744 148.531 179.846  0.00  0.00     0.051 C 
ATOM     18  C   UNL d   1     107.904 147.415 178.528  0.00  0.00     0.030 C 
ATOM     19  C   UNL d   1     108.880 148.588 178.588  0.00  0.00     0.115 C 
ENDROOT
BRANCH   5  20
ATOM     20  C   UNL d   1     104.736 145.670 187.315  0.00  0.00     0.000 C 
ATOM     21  C   UNL d   1     103.220 145.440 187.319  0.00  0.00     0.000 C 
BRANCH  20  22
ATOM     22  C   UNL d   1     105.258 145.940 188.757  0.00  0.00     0.000 C 
BRANCH  22  23
ATOM     23  C   UNL d   1     106.161 144.879 189.403  0.00  0.00     0.000 C 
BRANCH  23  24
ATOM     24  C   UNL d   1     107.399 144.460 188.600  0.00  0.00     0.000 C 
BRANCH  24  25
ATOM     25  C   UNL d   1     108.532 145.500 188.544  0.00  0.00     0.000 C 
ATOM     26  C   UNL d   1     108.871 146.053 189.931  0.00  0.00     0.000 C 
ATOM     27  C   UNL d   1     109.783 144.882 187.914  0.00  0.00     0.000 C 
ENDBRANCH  24  25
ENDBRANCH  23  24
ENDBRANCH  22  23
ENDBRANCH  20  22
ENDBRANCH   5  20
BRANCH  19  28
ATOM     28  O   UNL d   1     109.731 148.553 177.444  0.00  0.00    -0.385 OA
ATOM     29  H   UNL d   1     109.426 147.823 176.875  0.00  0.00     0.210 HD
ENDBRANCH  19  28
TORSDOF 6
ENDMDL
MODEL 9
REMARK VINA RESULT:    -6.757     25.763     30.672
REMARK INTER + INTRA:         -10.650
REMARK INTER:                  -9.491
REMARK INTRA:                  -1.158
REMARK UNBOUND:                -1.721
REMARK  6 active torsions:
REMARK  status: ('A' for Active; 'I' for Inactive)
REMARK    1  A    between atoms: O_1  and  C_22 
REMARK    2  A    between atoms: C_6  and  C_13 
REMARK    3  A    between atoms: C_13  and  C_21 
REMARK    4  A    between atoms: C_21  and  C_24 
REMARK    5  A    between atoms: C_24  and  C_25 
REMARK    6  A    between atoms: C_25  and  C_26 
ROOT
ATOM      1  C   UNL d   1     126.990 141.779 198.620  0.00  0.00     0.000 C 
ATOM      2  C   UNL d   1     127.204 142.061 197.111  0.00  0.00     0.000 C 
ATOM      3  C   UNL d   1     126.855 140.853 196.240  0.00  0.00     0.005 C 
ATOM      4  C   UNL d   1     125.360 140.472 196.442  0.00  0.00     0.004 C 
ATOM      5  C   UNL d   1     127.571 143.082 199.256  0.00  0.00     0.000 C 
ATOM      6  C   UNL d   1     125.466 141.613 198.781  0.00  0.00     0.000 C 
ATOM      7  C   UNL d   1     124.995 139.155 195.645  0.00  0.00     0.015 C 
ATOM      8  C   UNL d   1     128.618 142.608 197.041  0.00  0.00     0.000 C 
ATOM      9  C   UNL d   1     124.923 140.448 197.935  0.00  0.00     0.000 C 
ATOM     10  C   UNL d   1     128.724 143.488 198.289  0.00  0.00     0.000 C 
ATOM     11  C   UNL d   1     127.140 141.115 194.754  0.00  0.00     0.025 C 
ATOM     12  C   UNL d   1     127.754 140.518 199.095  0.00  0.00     0.000 C 
ATOM     13  C   UNL d   1     125.623 139.175 194.245  0.00  0.00    -0.047 C 
ATOM     14  C   UNL d   1     123.447 139.085 195.498  0.00  0.00     0.006 C 
ATOM     15  C   UNL d   1     126.554 140.066 193.863  0.00  0.00    -0.035 C 
ATOM     16  C   UNL d   1     125.499 137.892 196.387  0.00  0.00     0.004 C 
ATOM     17  C   UNL d   1     125.130 138.126 193.267  0.00  0.00     0.051 C 
ATOM     18  C   UNL d   1     122.957 137.994 194.543  0.00  0.00     0.030 C 
ATOM     19  C   UNL d   1     123.606 138.118 193.167  0.00  0.00     0.115 C 
ENDROOT
BRANCH   5  20
ATOM     20  C   UNL d   1     128.045 143.082 200.750  0.00  0.00     0.000 C 
ATOM     21  C   UNL d   1     127.549 144.304 201.532  0.00  0.00     0.000 C 
BRANCH  20  22
ATOM     22  C   UNL d   1     129.598 142.987 200.799  0.00  0.00     0.000 C 
BRANCH  22  23
ATOM     23  C   UNL d   1     130.229 142.102 201.884  0.00  0.00     0.000 C 
BRANCH  23  24
ATOM     24  C   UNL d   1     129.684 140.672 201.996  0.00  0.00     0.000 C 
BRANCH  24  25
ATOM     25  C   UNL d   1     130.627 139.565 201.492  0.00  0.00     0.000 C 
ATOM     26  C   UNL d   1     129.894 138.234 201.302  0.00  0.00     0.000 C 
ATOM     27  C   UNL d   1     131.279 139.989 200.173  0.00  0.00     0.000 C 
ENDBRANCH  24  25
ENDBRANCH  23  24
ENDBRANCH  22  23
ENDBRANCH  20  22
ENDBRANCH   5  20
BRANCH  19  28
ATOM     28  O   UNL d   1     123.205 137.017 192.354  0.00  0.00    -0.385 OA
ATOM     29  H   UNL d   1     122.764 136.370 192.935  0.00  0.00     0.210 HD
ENDBRANCH  19  28
TORSDOF 6
ENDMDL
MODEL 10
REMARK VINA RESULT:    -6.662     29.749     34.656
REMARK INTER + INTRA:         -10.524
REMARK INTER:                  -9.358
REMARK INTRA:                  -1.166
REMARK UNBOUND:                -1.721
REMARK  6 active torsions:
REMARK  status: ('A' for Active; 'I' for Inactive)
REMARK    1  A    between atoms: O_1  and  C_22 
REMARK    2  A    between atoms: C_6  and  C_13 
REMARK    3  A    between atoms: C_13  and  C_21 
REMARK    4  A    between atoms: C_21  and  C_24 
REMARK    5  A    between atoms: C_24  and  C_25 
REMARK    6  A    between atoms: C_25  and  C_26 
ROOT
ATOM      1  C   UNL d   1     104.477 146.807 185.595  0.00  0.00     0.000 C 
ATOM      2  C   UNL d   1     104.047 146.591 184.122  0.00  0.00     0.000 C 
ATOM      3  C   UNL d   1     105.110 147.069 183.131  0.00  0.00     0.005 C 
ATOM      4  C   UNL d   1     106.434 146.283 183.358  0.00  0.00     0.004 C 
ATOM      5  C   UNL d   1     103.172 146.402 186.352  0.00  0.00     0.000 C 
ATOM      6  C   UNL d   1     105.664 145.848 185.808  0.00  0.00     0.000 C 
ATOM      7  C   UNL d   1     107.590 146.834 182.429  0.00  0.00     0.015 C 
ATOM      8  C   UNL d   1     102.668 147.220 184.050  0.00  0.00     0.000 C 
ATOM      9  C   UNL d   1     106.832 146.161 184.857  0.00  0.00     0.000 C 
ATOM     10  C   UNL d   1     102.029 146.837 185.386  0.00  0.00     0.000 C 
ATOM     11  C   UNL d   1     104.647 146.920 181.675  0.00  0.00     0.025 C 
ATOM     12  C   UNL d   1     104.874 148.278 185.880  0.00  0.00     0.000 C 
ATOM     13  C   UNL d   1     107.065 147.107 181.013  0.00  0.00    -0.047 C 
ATOM     14  C   UNL d   1     108.710 145.755 182.349  0.00  0.00     0.006 C 
ATOM     15  C   UNL d   1     105.760 147.117 180.695  0.00  0.00    -0.035 C 
ATOM     16  C   UNL d   1     108.183 148.150 182.991  0.00  0.00     0.004 C 
ATOM     17  C   UNL d   1     108.109 147.360 179.942  0.00  0.00     0.051 C 
ATOM     18  C   UNL d   1     109.782 146.043 181.296  0.00  0.00     0.030 C 
ATOM     19  C   UNL d   1     109.170 146.262 179.915  0.00  0.00     0.115 C 
ENDROOT
BRANCH   5  20
ATOM     20  C   UNL d   1     102.920 146.917 187.812  0.00  0.00     0.000 C 
ATOM     21  C   UNL d   1     102.910 145.787 188.848  0.00  0.00     0.000 C 
BRANCH  20  22
ATOM     22  C   UNL d   1     101.587 147.718 187.854  0.00  0.00     0.000 C 
BRANCH  22  23
ATOM     23  C   UNL d   1     100.354 147.029 188.457  0.00  0.00     0.000 C 
BRANCH  23  24
ATOM     24  C   UNL d   1      99.088 147.023 187.592  0.00  0.00     0.000 C 
BRANCH  24  25
ATOM     25  C   UNL d   1      98.531 145.630 187.246  0.00  0.00     0.000 C 
ATOM     26  C   UNL d   1      99.642 144.580 187.142  0.00  0.00     0.000 C 
ATOM     27  C   UNL d   1      97.506 145.196 188.297  0.00  0.00     0.000 C 
ENDBRANCH  24  25
ENDBRANCH  23  24
ENDBRANCH  22  23
ENDBRANCH  20  22
ENDBRANCH   5  20
BRANCH  19  28
ATOM     28  O   UNL d   1     110.196 146.636 178.998  0.00  0.00    -0.385 OA
ATOM     29  H   UNL d   1     109.954 147.505 178.627  0.00  0.00     0.210 HD
ENDBRANCH  19  28
TORSDOF 6
ENDMDL
MODEL 11
REMARK VINA RESULT:    -6.658     25.599     30.231
REMARK INTER + INTRA:         -10.520
REMARK INTER:                  -8.965
REMARK INTRA:                  -1.555
REMARK UNBOUND:                -1.721
REMARK  6 active torsions:
REMARK  status: ('A' for Active; 'I' for Inactive)
REMARK    1  A    between atoms: O_1  and  C_22 
REMARK    2  A    between atoms: C_6  and  C_13 
REMARK    3  A    between atoms: C_13  and  C_21 
REMARK    4  A    between atoms: C_21  and  C_24 
REMARK    5  A    between atoms: C_24  and  C_25 
REMARK    6  A    between atoms: C_25  and  C_26 
ROOT
ATOM      1  C   UNL d   1     125.779 139.325 195.739  0.00  0.00     0.000 C 
ATOM      2  C   UNL d   1     126.637 140.608 195.593  0.00  0.00     0.000 C 
ATOM      3  C   UNL d   1     126.436 141.577 196.759  0.00  0.00     0.005 C 
ATOM      4  C   UNL d   1     126.842 140.887 198.093  0.00  0.00     0.004 C 
ATOM      5  C   UNL d   1     126.047 138.624 194.369  0.00  0.00     0.000 C 
ATOM      6  C   UNL d   1     126.368 138.590 196.959  0.00  0.00     0.000 C 
ATOM      7  C   UNL d   1     126.536 141.820 199.334  0.00  0.00     0.015 C 
ATOM      8  C   UNL d   1     126.319 141.098 194.192  0.00  0.00     0.000 C 
ATOM      9  C   UNL d   1     126.284 139.441 198.238  0.00  0.00     0.000 C 
ATOM     10  C   UNL d   1     126.228 139.809 193.372  0.00  0.00     0.000 C 
ATOM     11  C   UNL d   1     127.231 142.876 196.569  0.00  0.00     0.025 C 
ATOM     12  C   UNL d   1     124.276 139.644 195.938  0.00  0.00     0.000 C 
ATOM     13  C   UNL d   1     126.945 143.270 199.036  0.00  0.00    -0.047 C 
ATOM     14  C   UNL d   1     127.362 141.306 200.549  0.00  0.00     0.006 C 
ATOM     15  C   UNL d   1     127.272 143.711 197.811  0.00  0.00    -0.035 C 
ATOM     16  C   UNL d   1     125.029 141.802 199.691  0.00  0.00     0.004 C 
ATOM     17  C   UNL d   1     126.982 144.218 200.219  0.00  0.00     0.051 C 
ATOM     18  C   UNL d   1     127.356 142.249 201.753  0.00  0.00     0.030 C 
ATOM     19  C   UNL d   1     127.813 143.654 201.370  0.00  0.00     0.115 C 
ENDROOT
BRANCH   5  20
ATOM     20  C   UNL d   1     125.035 137.560 193.821  0.00  0.00     0.000 C 
ATOM     21  C   UNL d   1     125.673 136.180 193.621  0.00  0.00     0.000 C 
BRANCH  20  22
ATOM     22  C   UNL d   1     124.409 138.078 192.494  0.00  0.00     0.000 C 
BRANCH  22  23
ATOM     23  C   UNL d   1     122.898 137.888 192.291  0.00  0.00     0.000 C 
BRANCH  23  24
ATOM     24  C   UNL d   1     122.012 138.139 193.517  0.00  0.00     0.000 C 
BRANCH  24  25
ATOM     25  C   UNL d   1     121.439 136.877 194.187  0.00  0.00     0.000 C 
ATOM     26  C   UNL d   1     121.809 135.605 193.420  0.00  0.00     0.000 C 
ATOM     27  C   UNL d   1     121.939 136.775 195.631  0.00  0.00     0.000 C 
ENDBRANCH  24  25
ENDBRANCH  23  24
ENDBRANCH  22  23
ENDBRANCH  20  22
ENDBRANCH   5  20
BRANCH  19  28
ATOM     28  O   UNL d   1     127.682 144.518 202.497  0.00  0.00    -0.385 OA
ATOM     29  H   UNL d   1     127.080 144.085 203.129  0.00  0.00     0.210 HD
ENDBRANCH  19  28
TORSDOF 6
ENDMDL
MODEL 12
REMARK VINA RESULT:    -6.429     54.849     59.934
REMARK INTER + INTRA:         -10.216
REMARK INTER:                  -8.890
REMARK INTRA:                  -1.326
REMARK UNBOUND:                -1.721
REMARK  6 active torsions:
REMARK  status: ('A' for Active; 'I' for Inactive)
REMARK    1  A    between atoms: O_1  and  C_22 
REMARK    2  A    between atoms: C_6  and  C_13 
REMARK    3  A    between atoms: C_13  and  C_21 
REMARK    4  A    between atoms: C_21  and  C_24 
REMARK    5  A    between atoms: C_24  and  C_25 
REMARK    6  A    between atoms: C_25  and  C_26 
ROOT
ATOM      1  C   UNL d   1     113.872 142.115 225.006  0.00  0.00     0.000 C 
ATOM      2  C   UNL d   1     112.833 141.632 226.050  0.00  0.00     0.000 C 
ATOM      3  C   UNL d   1     112.481 142.721 227.065  0.00  0.00     0.005 C 
ATOM      4  C   UNL d   1     111.875 143.952 226.329  0.00  0.00     0.004 C 
ATOM      5  C   UNL d   1     114.160 140.789 224.231  0.00  0.00     0.000 C 
ATOM      6  C   UNL d   1     113.137 143.190 224.181  0.00  0.00     0.000 C 
ATOM      7  C   UNL d   1     111.609 145.143 227.336  0.00  0.00     0.015 C 
ATOM      8  C   UNL d   1     113.418 140.333 226.570  0.00  0.00     0.000 C 
ATOM      9  C   UNL d   1     112.670 144.366 225.057  0.00  0.00     0.000 C 
ATOM     10  C   UNL d   1     114.015 139.682 225.319  0.00  0.00     0.000 C 
ATOM     11  C   UNL d   1     111.509 142.213 228.139  0.00  0.00     0.025 C 
ATOM     12  C   UNL d   1     115.151 142.683 225.670  0.00  0.00     0.000 C 
ATOM     13  C   UNL d   1     110.995 144.622 228.643  0.00  0.00    -0.047 C 
ATOM     14  C   UNL d   1     110.606 146.131 226.671  0.00  0.00     0.006 C 
ATOM     15  C   UNL d   1     110.940 143.320 228.969  0.00  0.00    -0.035 C 
ATOM     16  C   UNL d   1     112.920 145.893 227.678  0.00  0.00     0.004 C 
ATOM     17  C   UNL d   1     110.421 145.665 229.583  0.00  0.00     0.051 C 
ATOM     18  C   UNL d   1     110.066 147.206 227.616  0.00  0.00     0.030 C 
ATOM     19  C   UNL d   1     109.442 146.593 228.867  0.00  0.00     0.115 C 
ENDROOT
BRANCH   5  20
ATOM     20  C   UNL d   1     115.492 140.629 223.420  0.00  0.00     0.000 C 
ATOM     21  C   UNL d   1     115.253 140.410 221.921  0.00  0.00     0.000 C 
BRANCH  20  22
ATOM     22  C   UNL d   1     116.326 139.462 224.023  0.00  0.00     0.000 C 
BRANCH  22  23
ATOM     23  C   UNL d   1     117.612 139.817 224.784  0.00  0.00     0.000 C 
BRANCH  23  24
ATOM     24  C   UNL d   1     117.504 139.868 226.313  0.00  0.00     0.000 C 
BRANCH  24  25
ATOM     25  C   UNL d   1     118.093 141.127 226.975  0.00  0.00     0.000 C 
ATOM     26  C   UNL d   1     119.267 140.790 227.900  0.00  0.00     0.000 C 
ATOM     27  C   UNL d   1     118.548 142.121 225.903  0.00  0.00     0.000 C 
ENDBRANCH  24  25
ENDBRANCH  23  24
ENDBRANCH  22  23
ENDBRANCH  20  22
ENDBRANCH   5  20
BRANCH  19  28
ATOM     28  O   UNL d   1     109.059 147.635 229.763  0.00  0.00    -0.385 OA
ATOM     29  H   UNL d   1     108.107 147.798 229.631  0.00  0.00     0.210 HD
ENDBRANCH  19  28
TORSDOF 6
ENDMDL
MODEL 13
REMARK VINA RESULT:    -6.383      4.821     10.930
REMARK INTER + INTRA:         -10.155
REMARK INTER:                  -9.084
REMARK INTRA:                  -1.071
REMARK UNBOUND:                -1.721
REMARK  6 active torsions:
REMARK  status: ('A' for Active; 'I' for Inactive)
REMARK    1  A    between atoms: O_1  and  C_22 
REMARK    2  A    between atoms: C_6  and  C_13 
REMARK    3  A    between atoms: C_13  and  C_21 
REMARK    4  A    between atoms: C_21  and  C_24 
REMARK    5  A    between atoms: C_24  and  C_25 
REMARK    6  A    between atoms: C_25  and  C_26 
ROOT
ATOM      1  C   UNL d   1     129.621 117.161 169.962  0.00  0.00     0.000 C 
ATOM      2  C   UNL d   1     128.795 117.757 171.131  0.00  0.00     0.000 C 
ATOM      3  C   UNL d   1     129.323 119.122 171.576  0.00  0.00     0.005 C 
ATOM      4  C   UNL d   1     129.256 120.126 170.389  0.00  0.00     0.004 C 
ATOM      5  C   UNL d   1     128.984 115.740 169.838  0.00  0.00     0.000 C 
ATOM      6  C   UNL d   1     129.346 118.092 168.765  0.00  0.00     0.000 C 
ATOM      7  C   UNL d   1     129.903 121.516 170.781  0.00  0.00     0.015 C 
ATOM      8  C   UNL d   1     128.754 116.638 172.154  0.00  0.00     0.000 C 
ATOM      9  C   UNL d   1     129.786 119.538 169.050  0.00  0.00     0.000 C 
ATOM     10  C   UNL d   1     128.588 115.378 171.302  0.00  0.00     0.000 C 
ATOM     11  C   UNL d   1     128.547 119.672 172.782  0.00  0.00     0.025 C 
ATOM     12  C   UNL d   1     131.133 117.086 170.291  0.00  0.00     0.000 C 
ATOM     13  C   UNL d   1     129.476 121.934 172.195  0.00  0.00    -0.047 C 
ATOM     14  C   UNL d   1     129.405 122.590 169.771  0.00  0.00     0.006 C 
ATOM     15  C   UNL d   1     128.857 121.110 173.056  0.00  0.00    -0.035 C 
ATOM     16  C   UNL d   1     131.449 121.447 170.739  0.00  0.00     0.004 C 
ATOM     17  C   UNL d   1     129.778 123.365 172.597  0.00  0.00     0.051 C 
ATOM     18  C   UNL d   1     129.753 124.027 170.163  0.00  0.00     0.030 C 
ATOM     19  C   UNL d   1     129.256 124.363 171.566  0.00  0.00     0.115 C 
ENDROOT
BRANCH   5  20
ATOM     20  C   UNL d   1     129.785 114.579 169.154  0.00  0.00     0.000 C 
ATOM     21  C   UNL d   1     129.071 114.007 167.923  0.00  0.00     0.000 C 
BRANCH  20  22
ATOM     22  C   UNL d   1     130.068 113.460 170.199  0.00  0.00     0.000 C 
BRANCH  22  23
ATOM     23  C   UNL d   1     130.991 112.306 169.782  0.00  0.00     0.000 C 
BRANCH  23  24
ATOM     24  C   UNL d   1     132.498 112.567 169.896  0.00  0.00     0.000 C 
BRANCH  24  25
ATOM     25  C   UNL d   1     133.177 113.085 168.615  0.00  0.00     0.000 C 
ATOM     26  C   UNL d   1     134.663 112.715 168.567  0.00  0.00     0.000 C 
ATOM     27  C   UNL d   1     132.465 112.527 167.380  0.00  0.00     0.000 C 
ENDBRANCH  24  25
ENDBRANCH  23  24
ENDBRANCH  22  23
ENDBRANCH  20  22
ENDBRANCH   5  20
BRANCH  19  28
ATOM     28  O   UNL d   1     129.703 125.670 171.925  0.00  0.00    -0.385 OA
ATOM     29  H   UNL d   1     130.596 125.786 171.552  0.00  0.00     0.210 HD
ENDBRANCH  19  28
TORSDOF 6
ENDMDL
MODEL 14
REMARK VINA RESULT:    -6.302      5.524      9.453
REMARK INTER + INTRA:         -10.049
REMARK INTER:                  -9.166
REMARK INTRA:                  -0.883
REMARK UNBOUND:                -1.721
REMARK  6 active torsions:
REMARK  status: ('A' for Active; 'I' for Inactive)
REMARK    1  A    between atoms: O_1  and  C_22 
REMARK    2  A    between atoms: C_6  and  C_13 
REMARK    3  A    between atoms: C_13  and  C_21 
REMARK    4  A    between atoms: C_21  and  C_24 
REMARK    5  A    between atoms: C_24  and  C_25 
REMARK    6  A    between atoms: C_25  and  C_26 
ROOT
ATOM      1  C   UNL d   1     127.682 118.034 172.984  0.00  0.00     0.000 C 
ATOM      2  C   UNL d   1     128.745 118.201 171.867  0.00  0.00     0.000 C 
ATOM      3  C   UNL d   1     128.754 119.613 171.281  0.00  0.00     0.005 C 
ATOM      4  C   UNL d   1     129.078 120.646 172.399  0.00  0.00     0.004 C 
ATOM      5  C   UNL d   1     127.779 116.501 173.266  0.00  0.00     0.000 C 
ATOM      6  C   UNL d   1     128.175 118.930 174.138  0.00  0.00     0.000 C 
ATOM      7  C   UNL d   1     128.980 122.127 171.852  0.00  0.00     0.015 C 
ATOM      8  C   UNL d   1     128.471 117.039 170.930  0.00  0.00     0.000 C 
ATOM      9  C   UNL d   1     128.282 120.405 173.714  0.00  0.00     0.000 C 
ATOM     10  C   UNL d   1     128.130 115.886 171.877  0.00  0.00     0.000 C 
ATOM     11  C   UNL d   1     129.757 119.749 170.126  0.00  0.00     0.025 C 
ATOM     12  C   UNL d   1     126.265 118.444 172.510  0.00  0.00     0.000 C 
ATOM     13  C   UNL d   1     129.625 122.237 170.464  0.00  0.00    -0.047 C 
ATOM     14  C   UNL d   1     129.744 123.063 172.834  0.00  0.00     0.006 C 
ATOM     15  C   UNL d   1     129.983 121.173 169.726  0.00  0.00    -0.035 C 
ATOM     16  C   UNL d   1     127.506 122.589 171.743  0.00  0.00     0.004 C 
ATOM     17  C   UNL d   1     129.866 123.640 169.939  0.00  0.00     0.051 C 
ATOM     18  C   UNL d   1     129.943 124.488 172.314  0.00  0.00     0.030 C 
ATOM     19  C   UNL d   1     130.624 124.499 170.948  0.00  0.00     0.115 C 
ENDROOT
BRANCH   5  20
ATOM     20  C   UNL d   1     126.579 115.751 173.942  0.00  0.00     0.000 C 
ATOM     21  C   UNL d   1     126.962 115.096 175.275  0.00  0.00     0.000 C 
BRANCH  20  22
ATOM     22  C   UNL d   1     126.006 114.696 172.952  0.00  0.00     0.000 C 
BRANCH  22  23
ATOM     23  C   UNL d   1     124.630 114.972 172.326  0.00  0.00     0.000 C 
BRANCH  23  24
ATOM     24  C   UNL d   1     123.433 114.278 172.987  0.00  0.00     0.000 C 
BRANCH  24  25
ATOM     25  C   UNL d   1     122.553 113.438 172.043  0.00  0.00     0.000 C 
ATOM     26  C   UNL d   1     121.264 114.173 171.661  0.00  0.00     0.000 C 
ATOM     27  C   UNL d   1     123.336 113.074 170.779  0.00  0.00     0.000 C 
ENDBRANCH  24  25
ENDBRANCH  23  24
ENDBRANCH  22  23
ENDBRANCH  20  22
ENDBRANCH   5  20
BRANCH  19  28
ATOM     28  O   UNL d   1     130.683 125.837 170.460  0.00  0.00    -0.385 OA
ATOM     29  H   UNL d   1     129.947 126.330 170.868  0.00  0.00     0.210 HD
ENDBRANCH  19  28
TORSDOF 6
ENDMDL
MODEL 15
REMARK VINA RESULT:    -6.245     17.085     21.270
REMARK INTER + INTRA:          -9.973
REMARK INTER:                  -8.945
REMARK INTRA:                  -1.029
REMARK UNBOUND:                -1.721
REMARK  6 active torsions:
REMARK  status: ('A' for Active; 'I' for Inactive)
REMARK    1  A    between atoms: O_1  and  C_22 
REMARK    2  A    between atoms: C_6  and  C_13 
REMARK    3  A    between atoms: C_13  and  C_21 
REMARK    4  A    between atoms: C_21  and  C_24 
REMARK    5  A    between atoms: C_24  and  C_25 
REMARK    6  A    between atoms: C_25  and  C_26 
ROOT
ATOM      1  C   UNL d   1     111.845 127.542 186.279  0.00  0.00     0.000 C 
ATOM      2  C   UNL d   1     112.191 126.031 186.252  0.00  0.00     0.000 C 
ATOM      3  C   UNL d   1     112.409 125.511 184.831  0.00  0.00     0.005 C 
ATOM      4  C   UNL d   1     113.588 126.277 184.164  0.00  0.00     0.004 C 
ATOM      5  C   UNL d   1     111.517 127.750 187.792  0.00  0.00     0.000 C 
ATOM      6  C   UNL d   1     113.126 128.251 185.799  0.00  0.00     0.000 C 
ATOM      7  C   UNL d   1     113.766 125.846 182.652  0.00  0.00     0.015 C 
ATOM      8  C   UNL d   1     111.095 125.394 187.087  0.00  0.00     0.000 C 
ATOM      9  C   UNL d   1     113.525 127.817 184.378  0.00  0.00     0.000 C 
ATOM     10  C   UNL d   1     110.886 126.393 188.227  0.00  0.00     0.000 C 
ATOM     11  C   UNL d   1     112.677 123.999 184.808  0.00  0.00     0.025 C 
ATOM     12  C   UNL d   1     110.633 127.882 185.375  0.00  0.00     0.000 C 
ATOM     13  C   UNL d   1     113.625 124.324 182.502  0.00  0.00    -0.047 C 
ATOM     14  C   UNL d   1     115.191 126.265 182.187  0.00  0.00     0.006 C 
ATOM     15  C   UNL d   1     113.164 123.523 183.475  0.00  0.00    -0.035 C 
ATOM     16  C   UNL d   1     112.708 126.525 181.747  0.00  0.00     0.004 C 
ATOM     17  C   UNL d   1     114.053 123.734 181.172  0.00  0.00     0.051 C 
ATOM     18  C   UNL d   1     115.596 125.701 180.825  0.00  0.00     0.030 C 
ATOM     19  C   UNL d   1     115.461 124.181 180.782  0.00  0.00     0.115 C 
ENDROOT
BRANCH   5  20
ATOM     20  C   UNL d   1     110.636 128.966 188.243  0.00  0.00     0.000 C 
ATOM     21  C   UNL d   1     111.387 130.302 188.177  0.00  0.00     0.000 C 
BRANCH  20  22
ATOM     22  C   UNL d   1     110.094 128.707 189.679  0.00  0.00     0.000 C 
BRANCH  22  23
ATOM     23  C   UNL d   1     110.858 129.328 190.858  0.00  0.00     0.000 C 
BRANCH  23  24
ATOM     24  C   UNL d   1     112.086 128.554 191.355  0.00  0.00     0.000 C 
BRANCH  24  25
ATOM     25  C   UNL d   1     113.164 129.404 192.052  0.00  0.00     0.000 C 
ATOM     26  C   UNL d   1     113.612 130.583 191.184  0.00  0.00     0.000 C 
ATOM     27  C   UNL d   1     112.640 129.920 193.395  0.00  0.00     0.000 C 
ENDBRANCH  24  25
ENDBRANCH  23  24
ENDBRANCH  22  23
ENDBRANCH  20  22
ENDBRANCH   5  20
BRANCH  19  28
ATOM     28  O   UNL d   1     115.740 123.719 179.462  0.00  0.00    -0.385 OA
ATOM     29  H   UNL d   1     116.348 122.961 179.540  0.00  0.00     0.210 HD
ENDBRANCH  19  28
TORSDOF 6
ENDMDL
MODEL 16
REMARK VINA RESULT:    -6.191     17.269     21.434
REMARK INTER + INTRA:          -9.903
REMARK INTER:                  -8.420
REMARK INTRA:                  -1.483
REMARK UNBOUND:                -1.721
REMARK  6 active torsions:
REMARK  status: ('A' for Active; 'I' for Inactive)
REMARK    1  A    between atoms: O_1  and  C_22 
REMARK    2  A    between atoms: C_6  and  C_13 
REMARK    3  A    between atoms: C_13  and  C_21 
REMARK    4  A    between atoms: C_21  and  C_24 
REMARK    5  A    between atoms: C_24  and  C_25 
REMARK    6  A    between atoms: C_25  and  C_26 
ROOT
ATOM      1  C   UNL d   1     111.879 127.563 186.252  0.00  0.00     0.000 C 
ATOM      2  C   UNL d   1     112.175 126.042 186.211  0.00  0.00     0.000 C 
ATOM      3  C   UNL d   1     112.394 125.532 184.785  0.00  0.00     0.005 C 
ATOM      4  C   UNL d   1     113.605 126.267 184.142  0.00  0.00     0.004 C 
ATOM      5  C   UNL d   1     111.540 127.763 187.764  0.00  0.00     0.000 C 
ATOM      6  C   UNL d   1     113.189 128.235 185.797  0.00  0.00     0.000 C 
ATOM      7  C   UNL d   1     113.787 125.849 182.627  0.00  0.00     0.015 C 
ATOM      8  C   UNL d   1     111.049 125.431 187.024  0.00  0.00     0.000 C 
ATOM      9  C   UNL d   1     113.591 127.805 184.375  0.00  0.00     0.000 C 
ATOM     10  C   UNL d   1     110.859 126.422 188.175  0.00  0.00     0.000 C 
ATOM     11  C   UNL d   1     112.612 124.013 184.746  0.00  0.00     0.025 C 
ATOM     12  C   UNL d   1     110.691 127.954 185.339  0.00  0.00     0.000 C 
ATOM     13  C   UNL d   1     113.598 124.335 182.456  0.00  0.00    -0.047 C 
ATOM     14  C   UNL d   1     115.231 126.226 182.185  0.00  0.00     0.006 C 
ATOM     15  C   UNL d   1     113.099 123.537 183.414  0.00  0.00    -0.035 C 
ATOM     16  C   UNL d   1     112.764 126.574 181.718  0.00  0.00     0.004 C 
ATOM     17  C   UNL d   1     114.023 123.748 181.123  0.00  0.00     0.051 C 
ATOM     18  C   UNL d   1     115.634 125.666 180.820  0.00  0.00     0.030 C 
ATOM     19  C   UNL d   1     115.449 124.152 180.756  0.00  0.00     0.115 C 
ENDROOT
BRANCH   5  20
ATOM     20  C   UNL d   1     110.695 129.002 188.220  0.00  0.00     0.000 C 
ATOM     21  C   UNL d   1     111.543 130.266 188.407  0.00  0.00     0.000 C 
BRANCH  20  22
ATOM     22  C   UNL d   1     109.930 128.651 189.530  0.00  0.00     0.000 C 
BRANCH  22  23
ATOM     23  C   UNL d   1     108.413 128.892 189.562  0.00  0.00     0.000 C 
BRANCH  23  24
ATOM     24  C   UNL d   1     107.662 128.665 188.244  0.00  0.00     0.000 C 
BRANCH  24  25
ATOM     25  C   UNL d   1     107.199 129.941 187.518  0.00  0.00     0.000 C 
ATOM     26  C   UNL d   1     107.629 131.209 188.263  0.00  0.00     0.000 C 
ATOM     27  C   UNL d   1     107.754 129.966 186.092  0.00  0.00     0.000 C 
ENDBRANCH  24  25
ENDBRANCH  23  24
ENDBRANCH  22  23
ENDBRANCH  20  22
ENDBRANCH   5  20
BRANCH  19  28
ATOM     28  O   UNL d   1     115.729 123.697 179.434  0.00  0.00    -0.385 OA
ATOM     29  H   UNL d   1     114.892 123.716 178.934  0.00  0.00     0.210 HD
ENDBRANCH  19  28
TORSDOF 6
ENDMDL
MODEL 17
REMARK VINA RESULT:    -6.127     30.805     35.295
REMARK INTER + INTRA:          -9.818
REMARK INTER:                  -8.245
REMARK INTRA:                  -1.572
REMARK UNBOUND:                -1.721
REMARK  6 active torsions:
REMARK  status: ('A' for Active; 'I' for Inactive)
REMARK    1  A    between atoms: O_1  and  C_22 
REMARK    2  A    between atoms: C_6  and  C_13 
REMARK    3  A    between atoms: C_13  and  C_21 
REMARK    4  A    between atoms: C_21  and  C_24 
REMARK    5  A    between atoms: C_24  and  C_25 
REMARK    6  A    between atoms: C_25  and  C_26 
ROOT
ATOM      1  C   UNL d   1     156.341 126.740 149.690  0.00  0.00     0.000 C 
ATOM      2  C   UNL d   1     154.826 126.872 149.392  0.00  0.00     0.000 C 
ATOM      3  C   UNL d   1     153.964 126.204 150.465  0.00  0.00     0.005 C 
ATOM      4  C   UNL d   1     154.233 126.868 151.847  0.00  0.00     0.004 C 
ATOM      5  C   UNL d   1     156.958 127.340 148.386  0.00  0.00     0.000 C 
ATOM      6  C   UNL d   1     156.573 127.588 150.956  0.00  0.00     0.000 C 
ATOM      7  C   UNL d   1     153.446 126.124 153.000  0.00  0.00     0.015 C 
ATOM      8  C   UNL d   1     154.693 126.382 147.962  0.00  0.00     0.000 C 
ATOM      9  C   UNL d   1     155.745 127.077 152.148  0.00  0.00     0.000 C 
ATOM     10  C   UNL d   1     155.940 126.943 147.274  0.00  0.00     0.000 C 
ATOM     11  C   UNL d   1     152.468 126.273 150.125  0.00  0.00     0.025 C 
ATOM     12  C   UNL d   1     156.771 125.267 149.905  0.00  0.00     0.000 C 
ATOM     13  C   UNL d   1     152.017 125.785 152.551  0.00  0.00    -0.047 C 
ATOM     14  C   UNL d   1     153.371 127.072 154.232  0.00  0.00     0.006 C 
ATOM     15  C   UNL d   1     151.599 125.881 151.278  0.00  0.00    -0.035 C 
ATOM     16  C   UNL d   1     154.154 124.808 153.405  0.00  0.00     0.004 C 
ATOM     17  C   UNL d   1     151.057 125.335 153.635  0.00  0.00     0.051 C 
ATOM     18  C   UNL d   1     152.433 126.588 155.339  0.00  0.00     0.030 C 
ATOM     19  C   UNL d   1     151.029 126.314 154.807  0.00  0.00     0.115 C 
ENDROOT
BRANCH   5  20
ATOM     20  C   UNL d   1     158.428 126.981 147.977  0.00  0.00     0.000 C 
ATOM     21  C   UNL d   1     159.239 128.206 147.535  0.00  0.00     0.000 C 
BRANCH  20  22
ATOM     22  C   UNL d   1     158.403 125.901 146.857  0.00  0.00     0.000 C 
BRANCH  22  23
ATOM     23  C   UNL d   1     159.157 124.587 147.111  0.00  0.00     0.000 C 
BRANCH  23  24
ATOM     24  C   UNL d   1     158.304 123.313 147.157  0.00  0.00     0.000 C 
BRANCH  24  25
ATOM     25  C   UNL d   1     157.037 123.334 146.283  0.00  0.00     0.000 C 
ATOM     26  C   UNL d   1     157.136 122.353 145.111  0.00  0.00     0.000 C 
ATOM     27  C   UNL d   1     155.807 123.005 147.132  0.00  0.00     0.000 C 
ENDBRANCH  24  25
ENDBRANCH  23  24
ENDBRANCH  22  23
ENDBRANCH  20  22
ENDBRANCH   5  20
BRANCH  19  28
ATOM     28  O   UNL d   1     150.228 125.759 155.849  0.00  0.00    -0.385 OA
ATOM     29  H   UNL d   1     149.919 126.498 156.404  0.00  0.00     0.210 HD
ENDBRANCH  19  28
TORSDOF 6
ENDMDL
MODEL 18
REMARK VINA RESULT:    -5.919     18.327     22.000
REMARK INTER + INTRA:          -9.543
REMARK INTER:                  -7.989
REMARK INTRA:                  -1.554
REMARK UNBOUND:                -1.721
REMARK  6 active torsions:
REMARK  status: ('A' for Active; 'I' for Inactive)
REMARK    1  A    between atoms: O_1  and  C_22 
REMARK    2  A    between atoms: C_6  and  C_13 
REMARK    3  A    between atoms: C_13  and  C_21 
REMARK    4  A    between atoms: C_21  and  C_24 
REMARK    5  A    between atoms: C_24  and  C_25 
REMARK    6  A    between atoms: C_25  and  C_26 
ROOT
ATOM      1  C   UNL d   1     135.517 143.947 182.397  0.00  0.00     0.000 C 
ATOM      2  C   UNL d   1     134.331 143.495 181.507  0.00  0.00     0.000 C 
ATOM      3  C   UNL d   1     134.656 142.235 180.703  0.00  0.00     0.005 C 
ATOM      4  C   UNL d   1     134.992 141.064 181.671  0.00  0.00     0.004 C 
ATOM      5  C   UNL d   1     134.979 145.305 182.950  0.00  0.00     0.000 C 
ATOM      6  C   UNL d   1     135.662 142.838 183.458  0.00  0.00     0.000 C 
ATOM      7  C   UNL d   1     135.447 139.777 180.872  0.00  0.00     0.015 C 
ATOM      8  C   UNL d   1     133.951 144.751 180.744  0.00  0.00     0.000 C 
ATOM      9  C   UNL d   1     135.960 141.469 182.820  0.00  0.00     0.000 C 
ATOM     10  C   UNL d   1     134.106 145.863 181.785  0.00  0.00     0.000 C 
ATOM     11  C   UNL d   1     133.505 141.838 179.768  0.00  0.00     0.025 C 
ATOM     12  C   UNL d   1     136.823 144.133 181.585  0.00  0.00     0.000 C 
ATOM     13  C   UNL d   1     134.553 139.556 179.644  0.00  0.00    -0.047 C 
ATOM     14  C   UNL d   1     135.317 138.544 181.814  0.00  0.00     0.006 C 
ATOM     15  C   UNL d   1     133.684 140.471 179.186  0.00  0.00    -0.035 C 
ATOM     16  C   UNL d   1     136.914 139.904 180.391  0.00  0.00     0.004 C 
ATOM     17  C   UNL d   1     134.680 138.214 178.948  0.00  0.00     0.051 C 
ATOM     18  C   UNL d   1     135.491 137.197 181.111  0.00  0.00     0.030 C 
ATOM     19  C   UNL d   1     134.536 137.053 179.929  0.00  0.00     0.115 C 
ENDROOT
BRANCH   5  20
ATOM     20  C   UNL d   1     135.981 146.385 183.487  0.00  0.00     0.000 C 
ATOM     21  C   UNL d   1     136.094 146.383 185.017  0.00  0.00     0.000 C 
BRANCH  20  22
ATOM     22  C   UNL d   1     135.556 147.788 182.966  0.00  0.00     0.000 C 
BRANCH  22  23
ATOM     23  C   UNL d   1     136.468 148.480 181.941  0.00  0.00     0.000 C 
BRANCH  23  24
ATOM     24  C   UNL d   1     135.785 149.011 180.675  0.00  0.00     0.000 C 
BRANCH  24  25
ATOM     25  C   UNL d   1     136.116 148.252 179.377  0.00  0.00     0.000 C 
ATOM     26  C   UNL d   1     137.074 147.084 179.628  0.00  0.00     0.000 C 
ATOM     27  C   UNL d   1     134.831 147.737 178.726  0.00  0.00     0.000 C 
ENDBRANCH  24  25
ENDBRANCH  23  24
ENDBRANCH  22  23
ENDBRANCH  20  22
ENDBRANCH   5  20
BRANCH  19  28
ATOM     28  O   UNL d   1     134.815 135.834 179.242  0.00  0.00    -0.385 OA
ATOM     29  H   UNL d   1     134.183 135.763 178.503  0.00  0.00     0.210 HD
ENDBRANCH  19  28
TORSDOF 6
ENDMDL
MODEL 19
REMARK VINA RESULT:    -5.887      4.068      9.502
REMARK INTER + INTRA:          -9.500
REMARK INTER:                  -8.353
REMARK INTRA:                  -1.148
REMARK UNBOUND:                -1.721
REMARK  6 active torsions:
REMARK  status: ('A' for Active; 'I' for Inactive)
REMARK    1  A    between atoms: O_1  and  C_22 
REMARK    2  A    between atoms: C_6  and  C_13 
REMARK    3  A    between atoms: C_13  and  C_21 
REMARK    4  A    between atoms: C_21  and  C_24 
REMARK    5  A    between atoms: C_24  and  C_25 
REMARK    6  A    between atoms: C_25  and  C_26 
ROOT
ATOM      1  C   UNL d   1     128.199 119.332 172.732  0.00  0.00     0.000 C 
ATOM      2  C   UNL d   1     128.828 120.303 171.700  0.00  0.00     0.000 C 
ATOM      3  C   UNL d   1     128.179 121.687 171.736  0.00  0.00     0.005 C 
ATOM      4  C   UNL d   1     128.358 122.317 173.147  0.00  0.00     0.004 C 
ATOM      5  C   UNL d   1     128.915 117.994 172.362  0.00  0.00     0.000 C 
ATOM      6  C   UNL d   1     128.589 119.907 174.107  0.00  0.00     0.000 C 
ATOM      7  C   UNL d   1     127.596 123.700 173.255  0.00  0.00     0.015 C 
ATOM      8  C   UNL d   1     128.784 119.526 170.397  0.00  0.00     0.000 C 
ATOM      9  C   UNL d   1     128.044 121.332 174.309  0.00  0.00     0.000 C 
ATOM     10  C   UNL d   1     129.125 118.095 170.821  0.00  0.00     0.000 C 
ATOM     11  C   UNL d   1     128.755 122.619 170.660  0.00  0.00     0.025 C 
ATOM     12  C   UNL d   1     126.662 119.224 172.575  0.00  0.00     0.000 C 
ATOM     13  C   UNL d   1     127.805 124.535 171.983  0.00  0.00    -0.047 C 
ATOM     14  C   UNL d   1     128.174 124.484 174.469  0.00  0.00     0.006 C 
ATOM     15  C   UNL d   1     128.341 124.044 170.854  0.00  0.00    -0.035 C 
ATOM     16  C   UNL d   1     126.075 123.489 173.455  0.00  0.00     0.004 C 
ATOM     17  C   UNL d   1     127.382 125.990 172.053  0.00  0.00     0.051 C 
ATOM     18  C   UNL d   1     127.707 125.938 174.555  0.00  0.00     0.030 C 
ATOM     19  C   UNL d   1     127.990 126.698 173.262  0.00  0.00     0.115 C 
ENDROOT
BRANCH   5  20
ATOM     20  C   UNL d   1     128.273 116.622 172.768  0.00  0.00     0.000 C 
ATOM     21  C   UNL d   1     128.917 116.009 174.017  0.00  0.00     0.000 C 
BRANCH  20  22
ATOM     22  C   UNL d   1     128.353 115.639 171.564  0.00  0.00     0.000 C 
BRANCH  22  23
ATOM     23  C   UNL d   1     129.422 114.537 171.608  0.00  0.00     0.000 C 
BRANCH  23  24
ATOM     24  C   UNL d   1     130.604 114.700 170.645  0.00  0.00     0.000 C 
BRANCH  24  25
ATOM     25  C   UNL d   1     130.232 115.066 169.197  0.00  0.00     0.000 C 
ATOM     26  C   UNL d   1     131.281 115.975 168.550  0.00  0.00     0.000 C 
ATOM     27  C   UNL d   1     130.060 113.796 168.360  0.00  0.00     0.000 C 
ENDBRANCH  24  25
ENDBRANCH  23  24
ENDBRANCH  22  23
ENDBRANCH  20  22
ENDBRANCH   5  20
BRANCH  19  28
ATOM     28  O   UNL d   1     127.435 128.009 173.353  0.00  0.00    -0.385 OA
ATOM     29  H   UNL d   1     127.091 128.119 174.259  0.00  0.00     0.210 HD
ENDBRANCH  19  28
TORSDOF 6
ENDMDL
MODEL 20
REMARK VINA RESULT:    -5.671     12.470     16.068
REMARK INTER + INTRA:          -9.215
REMARK INTER:                  -8.083
REMARK INTRA:                  -1.132
REMARK UNBOUND:                -1.721
REMARK  6 active torsions:
REMARK  status: ('A' for Active; 'I' for Inactive)
REMARK    1  A    between atoms: O_1  and  C_22 
REMARK    2  A    between atoms: C_6  and  C_13 
REMARK    3  A    between atoms: C_13  and  C_21 
REMARK    4  A    between atoms: C_21  and  C_24 
REMARK    5  A    between atoms: C_24  and  C_25 
REMARK    6  A    between atoms: C_25  and  C_26 
ROOT
ATOM      1  C   UNL d   1     128.964 139.787 175.589  0.00  0.00     0.000 C 
ATOM      2  C   UNL d   1     127.469 139.882 175.988  0.00  0.00     0.000 C 
ATOM      3  C   UNL d   1     126.883 138.523 176.371  0.00  0.00     0.005 C 
ATOM      4  C   UNL d   1     127.659 137.937 177.585  0.00  0.00     0.004 C 
ATOM      5  C   UNL d   1     129.239 141.244 175.098  0.00  0.00     0.000 C 
ATOM      6  C   UNL d   1     129.698 139.400 176.888  0.00  0.00     0.000 C 
ATOM      7  C   UNL d   1     127.155 136.478 177.934  0.00  0.00     0.015 C 
ATOM      8  C   UNL d   1     126.833 140.636 174.834  0.00  0.00     0.000 C 
ATOM      9  C   UNL d   1     129.205 138.055 177.447  0.00  0.00     0.000 C 
ATOM     10  C   UNL d   1     127.882 141.690 174.473  0.00  0.00     0.000 C 
ATOM     11  C   UNL d   1     125.384 138.614 176.692  0.00  0.00     0.025 C 
ATOM     12  C   UNL d   1     129.206 138.746 174.466  0.00  0.00     0.000 C 
ATOM     13  C   UNL d   1     125.624 136.401 177.863  0.00  0.00    -0.047 C 
ATOM     14  C   UNL d   1     127.607 136.138 179.385  0.00  0.00     0.006 C 
ATOM     15  C   UNL d   1     124.857 137.367 177.332  0.00  0.00    -0.035 C 
ATOM     16  C   UNL d   1     127.742 135.432 176.954  0.00  0.00     0.004 C 
ATOM     17  C   UNL d   1     124.981 135.158 178.448  0.00  0.00     0.051 C 
ATOM     18  C   UNL d   1     126.988 134.858 179.949  0.00  0.00     0.030 C 
ATOM     19  C   UNL d   1     125.463 134.889 179.872  0.00  0.00     0.115 C 
ENDROOT
BRANCH   5  20
ATOM     20  C   UNL d   1     130.440 141.533 174.133  0.00  0.00     0.000 C 
ATOM     21  C   UNL d   1     131.286 142.732 174.578  0.00  0.00     0.000 C 
BRANCH  20  22
ATOM     22  C   UNL d   1     129.904 141.740 172.687  0.00  0.00     0.000 C 
BRANCH  22  23
ATOM     23  C   UNL d   1     130.103 143.118 172.038  0.00  0.00     0.000 C 
BRANCH  23  24
ATOM     24  C   UNL d   1     129.272 143.404 170.781  0.00  0.00     0.000 C 
BRANCH  24  25
ATOM     25  C   UNL d   1     127.869 143.984 171.035  0.00  0.00     0.000 C 
ATOM     26  C   UNL d   1     126.800 142.888 171.094  0.00  0.00     0.000 C 
ATOM     27  C   UNL d   1     127.859 144.786 172.339  0.00  0.00     0.000 C 
ENDBRANCH  24  25
ENDBRANCH  23  24
ENDBRANCH  22  23
ENDBRANCH  20  22
ENDBRANCH   5  20
BRANCH  19  28
ATOM     28  O   UNL d   1     124.943 133.633 180.303  0.00  0.00    -0.385 OA
ATOM     29  H   UNL d   1     125.153 132.977 179.614  0.00  0.00     0.210 HD
ENDBRANCH  19  28
TORSDOF 6
ENDMDL
