REMARK  6 active torsions:
REMARK  status: ('A' for Active; 'I' for Inactive)
REMARK    1  A    between atoms: O_1  and  C_22 
REMARK    2  A    between atoms: C_6  and  C_13 
REMARK    3  A    between atoms: C_13  and  C_21 
REMARK    4  A    between atoms: C_21  and  C_24 
REMARK    5  A    between atoms: C_24  and  C_25 
REMARK    6  A    between atoms: C_25  and  C_26 
ROOT
ATOM      1  C   UNL d   1      -3.063  -0.620   0.060  0.00  0.00     0.000 C 
ATOM      2  C   UNL d   1      -2.354   0.677  -0.407  0.00  0.00     0.000 C 
ATOM      3  C   UNL d   1      -0.916   0.769   0.106  0.00  0.00     0.005 C 
ATOM      4  C   UNL d   1      -0.089  -0.438  -0.423  0.00  0.00     0.004 C 
ATOM      5  C   UNL d   1      -4.518  -0.369  -0.450  0.00  0.00     0.000 C 
ATOM      6  C   UNL d   1      -2.320  -1.761  -0.662  0.00  0.00     0.000 C 
ATOM      7  C   UNL d   1       1.372  -0.438   0.184  0.00  0.00     0.015 C 
ATOM      8  C   UNL d   1      -3.323   1.779  -0.021  0.00  0.00     0.000 C 
ATOM      9  C   UNL d   1      -0.828  -1.801  -0.289  0.00  0.00     0.000 C 
ATOM     10  C   UNL d   1      -4.695   1.175  -0.330  0.00  0.00     0.000 C 
ATOM     11  C   UNL d   1      -0.246   2.090  -0.298  0.00  0.00     0.025 C 
ATOM     12  C   UNL d   1      -3.015  -0.793   1.599  0.00  0.00     0.000 C 
ATOM     13  C   UNL d   1       1.958   0.981   0.188  0.00  0.00    -0.047 C 
ATOM     14  C   UNL d   1       2.271  -1.348  -0.703  0.00  0.00     0.006 C 
ATOM     15  C   UNL d   1       1.230   2.084  -0.051  0.00  0.00    -0.035 C 
ATOM     16  C   UNL d   1       1.376  -0.971   1.638  0.00  0.00     0.004 C 
ATOM     17  C   UNL d   1       3.444   1.098   0.468  0.00  0.00     0.051 C 
ATOM     18  C   UNL d   1       3.764  -1.256  -0.383  0.00  0.00     0.030 C 
ATOM     19  C   UNL d   1       4.264   0.185  -0.441  0.00  0.00     0.115 C 
ENDROOT
BRANCH   5  20
ATOM     20  C   UNL d   1      -5.720  -1.139   0.198  0.00  0.00     0.000 C 
ATOM     21  C   UNL d   1      -5.517  -2.659   0.209  0.00  0.00     0.000 C 
BRANCH  20  22
ATOM     22  C   UNL d   1      -7.035  -0.762  -0.544  0.00  0.00     0.000 C 
BRANCH  22  23
ATOM     23  C   UNL d   1      -8.326  -1.483  -0.128  0.00  0.00     0.000 C 
BRANCH  23  24
ATOM     24  C   UNL d   1      -8.742  -1.337   1.341  0.00  0.00     0.000 C 
BRANCH  24  25
ATOM     25  C   UNL d   1      -8.975   0.107   1.821  0.00  0.00     0.000 C 
ATOM     26  C   UNL d   1     -10.083   0.802   1.024  0.00  0.00     0.000 C 
ATOM     27  C   UNL d   1      -9.326   0.116   3.311  0.00  0.00     0.000 C 
ENDBRANCH  24  25
ENDBRANCH  23  24
ENDBRANCH  22  23
ENDBRANCH  20  22
ENDBRANCH   5  20
BRANCH  19  28
ATOM     28  O   UNL d   1       5.628   0.229  -0.026  0.00  0.00    -0.385 OA
ATOM     29  H   UNL d   1       6.136  -0.343  -0.630  0.00  0.00     0.210 HD
ENDBRANCH  19  28
TORSDOF 6
