MODEL 1
REMARK VINA RESULT:    -8.073      0.000      0.000
REMARK INTER + INTRA:         -12.388
REMARK INTER:                 -10.668
REMARK INTRA:                  -1.719
REMARK UNBOUND:                -1.719
REMARK  6 active torsions:
REMARK  status: ('A' for Active; 'I' for Inactive)
REMARK    1  A    between atoms: O_1  and  C_22 
REMARK    2  A    between atoms: C_6  and  C_13 
REMARK    3  A    between atoms: C_13  and  C_21 
REMARK    4  A    between atoms: C_21  and  C_24 
REMARK    5  A    between atoms: C_24  and  C_25 
REMARK    6  A    between atoms: C_25  and  C_26 
ROOT
ATOM      1  C   UNL d   1     126.795 125.766 171.457  0.00  0.00     0.000 C 
ATOM      2  C   UNL d   1     128.248 126.096 171.030  0.00  0.00     0.000 C 
ATOM      3  C   UNL d   1     129.176 124.886 171.144  0.00  0.00     0.005 C 
ATOM      4  C   UNL d   1     128.662 123.739 170.226  0.00  0.00     0.004 C 
ATOM      5  C   UNL d   1     126.136 127.181 171.405  0.00  0.00     0.000 C 
ATOM      6  C   UNL d   1     126.281 124.781 170.388  0.00  0.00     0.000 C 
ATOM      7  C   UNL d   1     129.532 122.430 170.409  0.00  0.00     0.015 C 
ATOM      8  C   UNL d   1     128.589 127.337 171.834  0.00  0.00     0.000 C 
ATOM      9  C   UNL d   1     127.129 123.499 170.334  0.00  0.00     0.000 C 
ATOM     10  C   UNL d   1     127.290 128.146 171.813  0.00  0.00     0.000 C 
ATOM     11  C   UNL d   1     130.627 125.240 170.792  0.00  0.00     0.025 C 
ATOM     12  C   UNL d   1     126.726 125.152 172.878  0.00  0.00     0.000 C 
ATOM     13  C   UNL d   1     131.026 122.776 170.482  0.00  0.00    -0.047 C 
ATOM     14  C   UNL d   1     129.291 121.507 169.179  0.00  0.00     0.006 C 
ATOM     15  C   UNL d   1     131.490 124.028 170.627  0.00  0.00    -0.035 C 
ATOM     16  C   UNL d   1     129.143 121.674 171.703  0.00  0.00     0.004 C 
ATOM     17  C   UNL d   1     131.995 121.615 170.366  0.00  0.00     0.051 C 
ATOM     18  C   UNL d   1     130.246 120.314 169.095  0.00  0.00     0.030 C 
ATOM     19  C   UNL d   1     131.706 120.758 169.136  0.00  0.00     0.115 C 
ENDROOT
BRANCH   5  20
ATOM     20  C   UNL d   1     124.828 127.468 172.221  0.00  0.00     0.000 C 
ATOM     21  C   UNL d   1     123.552 127.165 171.426  0.00  0.00     0.000 C 
BRANCH  20  22
ATOM     22  C   UNL d   1     124.838 128.946 172.709  0.00  0.00     0.000 C 
BRANCH  22  23
ATOM     23  C   UNL d   1     124.718 129.204 174.219  0.00  0.00     0.000 C 
BRANCH  23  24
ATOM     24  C   UNL d   1     126.033 129.418 174.978  0.00  0.00     0.000 C 
BRANCH  24  25
ATOM     25  C   UNL d   1     126.479 128.246 175.871  0.00  0.00     0.000 C 
ATOM     26  C   UNL d   1     125.447 127.114 175.884  0.00  0.00     0.000 C 
ATOM     27  C   UNL d   1     127.831 127.708 175.397  0.00  0.00     0.000 C 
ENDBRANCH  24  25
ENDBRANCH  23  24
ENDBRANCH  22  23
ENDBRANCH  20  22
ENDBRANCH   5  20
BRANCH  19  28
ATOM     28  O   UNL d   1     132.548 119.608 169.169  0.00  0.00    -0.385 OA
ATOM     29  H   UNL d   1     132.394 119.157 170.020  0.00  0.00     0.210 HD
ENDBRANCH  19  28
TORSDOF 6
ENDMDL
MODEL 2
REMARK VINA RESULT:    -7.719     29.287     32.038
REMARK INTER + INTRA:         -11.920
REMARK INTER:                 -10.495
REMARK INTRA:                  -1.425
REMARK UNBOUND:                -1.719
REMARK  6 active torsions:
REMARK  status: ('A' for Active; 'I' for Inactive)
REMARK    1  A    between atoms: O_1  and  C_22 
REMARK    2  A    between atoms: C_6  and  C_13 
REMARK    3  A    between atoms: C_13  and  C_21 
REMARK    4  A    between atoms: C_21  and  C_24 
REMARK    5  A    between atoms: C_24  and  C_25 
REMARK    6  A    between atoms: C_25  and  C_26 
ROOT
ATOM      1  C   UNL d   1     126.806 141.324 198.251  0.00  0.00     0.000 C 
ATOM      2  C   UNL d   1     125.889 140.577 197.248  0.00  0.00     0.000 C 
ATOM      3  C   UNL d   1     124.918 139.625 197.948  0.00  0.00     0.005 C 
ATOM      4  C   UNL d   1     124.003 140.425 198.920  0.00  0.00     0.004 C 
ATOM      5  C   UNL d   1     127.775 142.068 197.277  0.00  0.00     0.000 C 
ATOM      6  C   UNL d   1     125.860 142.248 199.043  0.00  0.00     0.000 C 
ATOM      7  C   UNL d   1     123.066 139.456 199.748  0.00  0.00     0.015 C 
ATOM      8  C   UNL d   1     126.857 139.995 196.236  0.00  0.00     0.000 C 
ATOM      9  C   UNL d   1     124.778 141.453 199.794  0.00  0.00     0.000 C 
ATOM     10  C   UNL d   1     127.905 141.098 196.065  0.00  0.00     0.000 C 
ATOM     11  C   UNL d   1     124.066 138.835 196.945  0.00  0.00     0.025 C 
ATOM     12  C   UNL d   1     127.567 140.351 199.186  0.00  0.00     0.000 C 
ATOM     13  C   UNL d   1     122.490 138.356 198.846  0.00  0.00    -0.047 C 
ATOM     14  C   UNL d   1     121.889 140.292 200.330  0.00  0.00     0.006 C 
ATOM     15  C   UNL d   1     122.930 138.113 197.600  0.00  0.00    -0.035 C 
ATOM     16  C   UNL d   1     123.840 138.781 200.907  0.00  0.00     0.004 C 
ATOM     17  C   UNL d   1     121.357 137.531 199.424  0.00  0.00     0.051 C 
ATOM     18  C   UNL d   1     120.772 139.452 200.952  0.00  0.00     0.030 C 
ATOM     19  C   UNL d   1     120.236 138.413 199.970  0.00  0.00     0.115 C 
ENDROOT
BRANCH   5  20
ATOM     20  C   UNL d   1     129.178 142.550 197.784  0.00  0.00     0.000 C 
ATOM     21  C   UNL d   1     129.419 144.044 197.539  0.00  0.00     0.000 C 
BRANCH  20  22
ATOM     22  C   UNL d   1     130.291 141.693 197.112  0.00  0.00     0.000 C 
BRANCH  22  23
ATOM     23  C   UNL d   1     131.616 141.517 197.869  0.00  0.00     0.000 C 
BRANCH  23  24
ATOM     24  C   UNL d   1     131.507 141.089 199.338  0.00  0.00     0.000 C 
BRANCH  24  25
ATOM     25  C   UNL d   1     131.882 142.169 200.369  0.00  0.00     0.000 C 
ATOM     26  C   UNL d   1     132.565 143.373 199.714  0.00  0.00     0.000 C 
ATOM     27  C   UNL d   1     130.634 142.630 201.125  0.00  0.00     0.000 C 
ENDBRANCH  24  25
ENDBRANCH  23  24
ENDBRANCH  22  23
ENDBRANCH  20  22
ENDBRANCH   5  20
BRANCH  19  28
ATOM     28  O   UNL d   1     119.281 137.586 200.631  0.00  0.00    -0.385 OA
ATOM     29  H   UNL d   1     119.330 136.701 200.226  0.00  0.00     0.210 HD
ENDBRANCH  19  28
TORSDOF 6
ENDMDL
MODEL 3
REMARK VINA RESULT:    -7.400     30.990     32.472
REMARK INTER + INTRA:         -11.499
REMARK INTER:                  -9.908
REMARK INTRA:                  -1.592
REMARK UNBOUND:                -1.719
REMARK  6 active torsions:
REMARK  status: ('A' for Active; 'I' for Inactive)
REMARK    1  A    between atoms: O_1  and  C_22 
REMARK    2  A    between atoms: C_6  and  C_13 
REMARK    3  A    between atoms: C_13  and  C_21 
REMARK    4  A    between atoms: C_21  and  C_24 
REMARK    5  A    between atoms: C_24  and  C_25 
REMARK    6  A    between atoms: C_25  and  C_26 
ROOT
ATOM      1  C   UNL d   1     124.993 139.026 199.863  0.00  0.00     0.000 C 
ATOM      2  C   UNL d   1     125.379 139.893 198.637  0.00  0.00     0.000 C 
ATOM      3  C   UNL d   1     126.486 140.897 198.963  0.00  0.00     0.005 C 
ATOM      4  C   UNL d   1     127.764 140.140 199.428  0.00  0.00     0.004 C 
ATOM      5  C   UNL d   1     123.764 138.241 199.303  0.00  0.00     0.000 C 
ATOM      6  C   UNL d   1     126.234 138.157 200.142  0.00  0.00     0.000 C 
ATOM      7  C   UNL d   1     128.891 141.152 199.885  0.00  0.00     0.015 C 
ATOM      8  C   UNL d   1     124.050 140.430 198.140  0.00  0.00     0.000 C 
ATOM      9  C   UNL d   1     127.474 139.011 200.459  0.00  0.00     0.000 C 
ATOM     10  C   UNL d   1     123.095 139.247 198.318  0.00  0.00     0.000 C 
ATOM     11  C   UNL d   1     126.811 141.801 197.765  0.00  0.00     0.025 C 
ATOM     12  C   UNL d   1     124.612 139.887 201.094  0.00  0.00     0.000 C 
ATOM     13  C   UNL d   1     128.983 142.337 198.912  0.00  0.00    -0.047 C 
ATOM     14  C   UNL d   1     130.254 140.400 199.887  0.00  0.00     0.006 C 
ATOM     15  C   UNL d   1     128.065 142.593 197.967  0.00  0.00    -0.035 C 
ATOM     16  C   UNL d   1     128.607 141.706 201.302  0.00  0.00     0.004 C 
ATOM     17  C   UNL d   1     130.199 143.234 199.053  0.00  0.00     0.051 C 
ATOM     18  C   UNL d   1     131.470 141.308 200.073  0.00  0.00     0.030 C 
ATOM     19  C   UNL d   1     131.498 142.431 199.040  0.00  0.00     0.115 C 
ENDROOT
BRANCH   5  20
ATOM     20  C   UNL d   1     122.717 137.616 200.287  0.00  0.00     0.000 C 
ATOM     21  C   UNL d   1     122.997 136.141 200.597  0.00  0.00     0.000 C 
BRANCH  20  22
ATOM     22  C   UNL d   1     121.286 137.796 199.702  0.00  0.00     0.000 C 
BRANCH  22  23
ATOM     23  C   UNL d   1     120.218 138.436 200.602  0.00  0.00     0.000 C 
BRANCH  23  24
ATOM     24  C   UNL d   1     120.731 139.359 201.714  0.00  0.00     0.000 C 
BRANCH  24  25
ATOM     25  C   UNL d   1     121.043 140.803 201.282  0.00  0.00     0.000 C 
ATOM     26  C   UNL d   1     120.263 141.206 200.027  0.00  0.00     0.000 C 
ATOM     27  C   UNL d   1     120.726 141.774 202.422  0.00  0.00     0.000 C 
ENDBRANCH  24  25
ENDBRANCH  23  24
ENDBRANCH  22  23
ENDBRANCH  20  22
ENDBRANCH   5  20
BRANCH  19  28
ATOM     28  O   UNL d   1     132.583 143.310 199.327  0.00  0.00    -0.385 OA
ATOM     29  H   UNL d   1     133.314 142.769 199.678  0.00  0.00     0.210 HD
ENDBRANCH  19  28
TORSDOF 6
ENDMDL
MODEL 4
REMARK VINA RESULT:    -7.376     28.108     31.180
REMARK INTER + INTRA:         -11.467
REMARK INTER:                 -10.138
REMARK INTRA:                  -1.330
REMARK UNBOUND:                -1.719
REMARK  6 active torsions:
REMARK  status: ('A' for Active; 'I' for Inactive)
REMARK    1  A    between atoms: O_1  and  C_22 
REMARK    2  A    between atoms: C_6  and  C_13 
REMARK    3  A    between atoms: C_13  and  C_21 
REMARK    4  A    between atoms: C_21  and  C_24 
REMARK    5  A    between atoms: C_24  and  C_25 
REMARK    6  A    between atoms: C_25  and  C_26 
ROOT
ATOM      1  C   UNL d   1     125.851 141.205 198.519  0.00  0.00     0.000 C 
ATOM      2  C   UNL d   1     125.038 141.030 197.211  0.00  0.00     0.000 C 
ATOM      3  C   UNL d   1     124.513 139.603 197.040  0.00  0.00     0.005 C 
ATOM      4  C   UNL d   1     123.578 139.239 198.229  0.00  0.00     0.004 C 
ATOM      5  C   UNL d   1     126.388 142.661 198.348  0.00  0.00     0.000 C 
ATOM      6  C   UNL d   1     124.821 141.031 199.653  0.00  0.00     0.000 C 
ATOM      7  C   UNL d   1     123.112 137.729 198.145  0.00  0.00     0.015 C 
ATOM      8  C   UNL d   1     125.954 141.589 196.138  0.00  0.00     0.000 C 
ATOM      9  C   UNL d   1     124.154 139.645 199.616  0.00  0.00     0.000 C 
ATOM     10  C   UNL d   1     126.593 142.806 196.810  0.00  0.00     0.000 C 
ATOM     11  C   UNL d   1     123.774 139.419 195.707  0.00  0.00     0.025 C 
ATOM     12  C   UNL d   1     127.004 140.176 198.635  0.00  0.00     0.000 C 
ATOM     13  C   UNL d   1     122.740 137.355 196.704  0.00  0.00    -0.047 C 
ATOM     14  C   UNL d   1     121.855 137.555 199.048  0.00  0.00     0.006 C 
ATOM     15  C   UNL d   1     123.021 138.128 195.642  0.00  0.00    -0.035 C 
ATOM     16  C   UNL d   1     124.228 136.769 198.626  0.00  0.00     0.004 C 
ATOM     17  C   UNL d   1     122.005 136.042 196.514  0.00  0.00     0.051 C 
ATOM     18  C   UNL d   1     121.147 136.209 198.881  0.00  0.00     0.030 C 
ATOM     19  C   UNL d   1     120.783 135.942 197.423  0.00  0.00     0.115 C 
ENDROOT
BRANCH   5  20
ATOM     20  C   UNL d   1     127.655 143.128 199.145  0.00  0.00     0.000 C 
ATOM     21  C   UNL d   1     127.308 144.000 200.358  0.00  0.00     0.000 C 
BRANCH  20  22
ATOM     22  C   UNL d   1     128.622 143.879 198.184  0.00  0.00     0.000 C 
BRANCH  22  23
ATOM     23  C   UNL d   1     130.070 143.376 198.085  0.00  0.00     0.000 C 
BRANCH  23  24
ATOM     24  C   UNL d   1     130.401 142.101 198.871  0.00  0.00     0.000 C 
BRANCH  24  25
ATOM     25  C   UNL d   1     131.432 142.270 200.001  0.00  0.00     0.000 C 
ATOM     26  C   UNL d   1     132.476 143.339 199.666  0.00  0.00     0.000 C 
ATOM     27  C   UNL d   1     130.724 142.631 201.309  0.00  0.00     0.000 C 
ENDBRANCH  24  25
ENDBRANCH  23  24
ENDBRANCH  22  23
ENDBRANCH  20  22
ENDBRANCH   5  20
BRANCH  19  28
ATOM     28  O   UNL d   1     120.230 134.632 197.307  0.00  0.00    -0.385 OA
ATOM     29  H   UNL d   1     120.612 134.089 198.021  0.00  0.00     0.210 HD
ENDBRANCH  19  28
TORSDOF 6
ENDMDL
MODEL 5
REMARK VINA RESULT:    -7.373      1.373      2.744
REMARK INTER + INTRA:         -11.463
REMARK INTER:                 -10.510
REMARK INTRA:                  -0.953
REMARK UNBOUND:                -1.719
REMARK  6 active torsions:
REMARK  status: ('A' for Active; 'I' for Inactive)
REMARK    1  A    between atoms: O_1  and  C_22 
REMARK    2  A    between atoms: C_6  and  C_13 
REMARK    3  A    between atoms: C_13  and  C_21 
REMARK    4  A    between atoms: C_21  and  C_24 
REMARK    5  A    between atoms: C_24  and  C_25 
REMARK    6  A    between atoms: C_25  and  C_26 
ROOT
ATOM      1  C   UNL d   1     126.282 124.712 171.058  0.00  0.00     0.000 C 
ATOM      2  C   UNL d   1     126.802 123.646 172.056  0.00  0.00     0.000 C 
ATOM      3  C   UNL d   1     127.888 122.760 171.444  0.00  0.00     0.005 C 
ATOM      4  C   UNL d   1     129.101 123.634 171.012  0.00  0.00     0.004 C 
ATOM      5  C   UNL d   1     125.102 125.335 171.871  0.00  0.00     0.000 C 
ATOM      6  C   UNL d   1     127.475 125.661 170.833  0.00  0.00     0.000 C 
ATOM      7  C   UNL d   1     130.194 122.765 170.268  0.00  0.00     0.015 C 
ATOM      8  C   UNL d   1     125.538 122.979 172.566  0.00  0.00     0.000 C 
ATOM      9  C   UNL d   1     128.691 124.925 170.245  0.00  0.00     0.000 C 
ATOM     10  C   UNL d   1     124.551 124.140 172.706  0.00  0.00     0.000 C 
ATOM     11  C   UNL d   1     128.345 121.660 172.413  0.00  0.00     0.025 C 
ATOM     12  C   UNL d   1     125.795 124.083 169.729  0.00  0.00     0.000 C 
ATOM     13  C   UNL d   1     130.401 121.424 170.985  0.00  0.00    -0.047 C 
ATOM     14  C   UNL d   1     131.536 123.552 170.280  0.00  0.00     0.006 C 
ATOM     15  C   UNL d   1     129.586 120.964 171.948  0.00  0.00    -0.035 C 
ATOM     16  C   UNL d   1     129.779 122.476 168.804  0.00  0.00     0.004 C 
ATOM     17  C   UNL d   1     131.611 120.612 170.564  0.00  0.00     0.051 C 
ATOM     18  C   UNL d   1     132.744 122.738 169.811  0.00  0.00     0.030 C 
ATOM     19  C   UNL d   1     132.892 121.443 170.606  0.00  0.00     0.115 C 
ENDROOT
BRANCH   5  20
ATOM     20  C   UNL d   1     123.952 126.096 171.125  0.00  0.00     0.000 C 
ATOM     21  C   UNL d   1     124.474 127.083 170.074  0.00  0.00     0.000 C 
BRANCH  20  22
ATOM     22  C   UNL d   1     123.053 126.822 172.167  0.00  0.00     0.000 C 
BRANCH  22  23
ATOM     23  C   UNL d   1     123.721 127.362 173.440  0.00  0.00     0.000 C 
BRANCH  23  24
ATOM     24  C   UNL d   1     124.453 128.703 173.306  0.00  0.00     0.000 C 
BRANCH  24  25
ATOM     25  C   UNL d   1     125.762 128.825 174.107  0.00  0.00     0.000 C 
ATOM     26  C   UNL d   1     125.714 128.013 175.405  0.00  0.00     0.000 C 
ATOM     27  C   UNL d   1     126.946 128.365 173.253  0.00  0.00     0.000 C 
ENDBRANCH  24  25
ENDBRANCH  23  24
ENDBRANCH  22  23
ENDBRANCH  20  22
ENDBRANCH   5  20
BRANCH  19  28
ATOM     28  O   UNL d   1     133.958 120.671 170.057  0.00  0.00    -0.385 OA
ATOM     29  H   UNL d   1     133.767 120.540 169.110  0.00  0.00     0.210 HD
ENDBRANCH  19  28
TORSDOF 6
ENDMDL
MODEL 6
REMARK VINA RESULT:    -6.947     25.045     29.917
REMARK INTER + INTRA:         -10.900
REMARK INTER:                  -9.537
REMARK INTRA:                  -1.364
REMARK UNBOUND:                -1.719
REMARK  6 active torsions:
REMARK  status: ('A' for Active; 'I' for Inactive)
REMARK    1  A    between atoms: O_1  and  C_22 
REMARK    2  A    between atoms: C_6  and  C_13 
REMARK    3  A    between atoms: C_13  and  C_21 
REMARK    4  A    between atoms: C_21  and  C_24 
REMARK    5  A    between atoms: C_24  and  C_25 
REMARK    6  A    between atoms: C_25  and  C_26 
ROOT
ATOM      1  C   UNL d   1     125.722 140.866 197.366  0.00  0.00     0.000 C 
ATOM      2  C   UNL d   1     124.856 139.749 198.004  0.00  0.00     0.000 C 
ATOM      3  C   UNL d   1     124.223 138.835 196.953  0.00  0.00     0.005 C 
ATOM      4  C   UNL d   1     125.337 138.147 196.113  0.00  0.00     0.004 C 
ATOM      5  C   UNL d   1     126.087 141.719 198.623  0.00  0.00     0.000 C 
ATOM      6  C   UNL d   1     126.914 140.127 196.726  0.00  0.00     0.000 C 
ATOM      7  C   UNL d   1     124.716 137.285 194.940  0.00  0.00     0.015 C 
ATOM      8  C   UNL d   1     123.934 140.499 198.948  0.00  0.00     0.000 C 
ATOM      9  C   UNL d   1     126.458 139.123 195.653  0.00  0.00     0.000 C 
ATOM     10  C   UNL d   1     124.836 141.583 199.543  0.00  0.00     0.000 C 
ATOM     11  C   UNL d   1     123.308 137.778 197.589  0.00  0.00     0.025 C 
ATOM     12  C   UNL d   1     124.934 141.692 196.319  0.00  0.00     0.000 C 
ATOM     13  C   UNL d   1     123.496 136.494 195.435  0.00  0.00    -0.047 C 
ATOM     14  C   UNL d   1     125.797 136.280 194.446  0.00  0.00     0.006 C 
ATOM     15  C   UNL d   1     122.903 136.712 196.620  0.00  0.00    -0.035 C 
ATOM     16  C   UNL d   1     124.270 138.182 193.760  0.00  0.00     0.004 C 
ATOM     17  C   UNL d   1     122.974 135.411 194.512  0.00  0.00     0.051 C 
ATOM     18  C   UNL d   1     125.269 135.217 193.481  0.00  0.00     0.030 C 
ATOM     19  C   UNL d   1     124.084 134.458 194.072  0.00  0.00     0.115 C 
ENDROOT
BRANCH   5  20
ATOM     20  C   UNL d   1     126.520 143.216 198.456  0.00  0.00     0.000 C 
ATOM     21  C   UNL d   1     127.949 143.367 197.921  0.00  0.00     0.000 C 
BRANCH  20  22
ATOM     22  C   UNL d   1     126.357 143.956 199.815  0.00  0.00     0.000 C 
BRANCH  22  23
ATOM     23  C   UNL d   1     127.547 143.943 200.786  0.00  0.00     0.000 C 
BRANCH  23  24
ATOM     24  C   UNL d   1     127.546 142.835 201.847  0.00  0.00     0.000 C 
BRANCH  24  25
ATOM     25  C   UNL d   1     128.837 142.001 201.933  0.00  0.00     0.000 C 
ATOM     26  C   UNL d   1     129.003 141.079 200.721  0.00  0.00     0.000 C 
ATOM     27  C   UNL d   1     130.053 142.924 202.050  0.00  0.00     0.000 C 
ENDBRANCH  24  25
ENDBRANCH  23  24
ENDBRANCH  22  23
ENDBRANCH  20  22
ENDBRANCH   5  20
BRANCH  19  28
ATOM     28  O   UNL d   1     123.560 133.562 193.094  0.00  0.00    -0.385 OA
ATOM     29  H   UNL d   1     123.280 132.753 193.559  0.00  0.00     0.210 HD
ENDBRANCH  19  28
TORSDOF 6
ENDMDL
MODEL 7
REMARK VINA RESULT:    -6.852     30.686     32.963
REMARK INTER + INTRA:         -10.774
REMARK INTER:                  -9.956
REMARK INTRA:                  -0.818
REMARK UNBOUND:                -1.719
REMARK  6 active torsions:
REMARK  status: ('A' for Active; 'I' for Inactive)
REMARK    1  A    between atoms: O_1  and  C_22 
REMARK    2  A    between atoms: C_6  and  C_13 
REMARK    3  A    between atoms: C_13  and  C_21 
REMARK    4  A    between atoms: C_21  and  C_24 
REMARK    5  A    between atoms: C_24  and  C_25 
REMARK    6  A    between atoms: C_25  and  C_26 
ROOT
ATOM      1  C   UNL d   1     126.173 139.108 199.924  0.00  0.00     0.000 C 
ATOM      2  C   UNL d   1     126.984 138.315 200.981  0.00  0.00     0.000 C 
ATOM      3  C   UNL d   1     128.485 138.593 200.889  0.00  0.00     0.005 C 
ATOM      4  C   UNL d   1     128.757 140.107 201.124  0.00  0.00     0.004 C 
ATOM      5  C   UNL d   1     124.743 138.516 200.134  0.00  0.00     0.000 C 
ATOM      6  C   UNL d   1     126.321 140.586 200.338  0.00  0.00     0.000 C 
ATOM      7  C   UNL d   1     130.288 140.449 200.920  0.00  0.00     0.015 C 
ATOM      8  C   UNL d   1     126.509 136.885 200.804  0.00  0.00     0.000 C 
ATOM      9  C   UNL d   1     127.791 141.039 200.337  0.00  0.00     0.000 C 
ATOM     10  C   UNL d   1     125.008 137.035 200.542  0.00  0.00     0.000 C 
ATOM     11  C   UNL d   1     129.287 137.747 201.889  0.00  0.00     0.025 C 
ATOM     12  C   UNL d   1     126.692 138.865 198.484  0.00  0.00     0.000 C 
ATOM     13  C   UNL d   1     131.175 139.377 201.567  0.00  0.00    -0.047 C 
ATOM     14  C   UNL d   1     130.579 141.818 201.602  0.00  0.00     0.006 C 
ATOM     15  C   UNL d   1     130.709 138.198 202.010  0.00  0.00    -0.035 C 
ATOM     16  C   UNL d   1     130.648 140.537 199.416  0.00  0.00     0.004 C 
ATOM     17  C   UNL d   1     132.648 139.711 201.706  0.00  0.00     0.051 C 
ATOM     18  C   UNL d   1     132.065 142.167 201.697  0.00  0.00     0.030 C 
ATOM     19  C   UNL d   1     132.859 141.061 202.388  0.00  0.00     0.115 C 
ENDROOT
BRANCH   5  20
ATOM     20  C   UNL d   1     123.678 138.616 198.988  0.00  0.00     0.000 C 
ATOM     21  C   UNL d   1     123.330 140.065 198.623  0.00  0.00     0.000 C 
BRANCH  20  22
ATOM     22  C   UNL d   1     122.400 137.828 199.401  0.00  0.00     0.000 C 
BRANCH  22  23
ATOM     23  C   UNL d   1     121.174 138.635 199.853  0.00  0.00     0.000 C 
BRANCH  23  24
ATOM     24  C   UNL d   1     121.242 139.243 201.259  0.00  0.00     0.000 C 
BRANCH  24  25
ATOM     25  C   UNL d   1     120.916 140.745 201.346  0.00  0.00     0.000 C 
ATOM     26  C   UNL d   1     120.188 141.245 200.095  0.00  0.00     0.000 C 
ATOM     27  C   UNL d   1     120.066 141.029 202.587  0.00  0.00     0.000 C 
ENDBRANCH  24  25
ENDBRANCH  23  24
ENDBRANCH  22  23
ENDBRANCH  20  22
ENDBRANCH   5  20
BRANCH  19  28
ATOM     28  O   UNL d   1     134.249 141.383 202.350  0.00  0.00    -0.385 OA
ATOM     29  H   UNL d   1     134.332 142.339 202.516  0.00  0.00     0.210 HD
ENDBRANCH  19  28
TORSDOF 6
ENDMDL
MODEL 8
REMARK VINA RESULT:    -6.845     30.398     32.995
REMARK INTER + INTRA:         -10.765
REMARK INTER:                  -9.359
REMARK INTRA:                  -1.406
REMARK UNBOUND:                -1.719
REMARK  6 active torsions:
REMARK  status: ('A' for Active; 'I' for Inactive)
REMARK    1  A    between atoms: O_1  and  C_22 
REMARK    2  A    between atoms: C_6  and  C_13 
REMARK    3  A    between atoms: C_13  and  C_21 
REMARK    4  A    between atoms: C_21  and  C_24 
REMARK    5  A    between atoms: C_24  and  C_25 
REMARK    6  A    between atoms: C_25  and  C_26 
ROOT
ATOM      1  C   UNL d   1     105.873 146.474 185.064  0.00  0.00     0.000 C 
ATOM      2  C   UNL d   1     106.558 147.844 184.823  0.00  0.00     0.000 C 
ATOM      3  C   UNL d   1     107.552 147.799 183.662  0.00  0.00     0.005 C 
ATOM      4  C   UNL d   1     106.815 147.403 182.350  0.00  0.00     0.004 C 
ATOM      5  C   UNL d   1     105.069 146.764 186.371  0.00  0.00     0.000 C 
ATOM      6  C   UNL d   1     105.001 146.241 183.815  0.00  0.00     0.000 C 
ATOM      7  C   UNL d   1     107.834 147.232 181.152  0.00  0.00     0.015 C 
ATOM      8  C   UNL d   1     107.076 148.236 186.194  0.00  0.00     0.000 C 
ATOM      9  C   UNL d   1     105.841 146.202 182.527  0.00  0.00     0.000 C 
ATOM     10  C   UNL d   1     105.963 147.782 187.142  0.00  0.00     0.000 C 
ATOM     11  C   UNL d   1     108.280 149.138 183.478  0.00  0.00     0.025 C 
ATOM     12  C   UNL d   1     106.901 145.331 185.262  0.00  0.00     0.000 C 
ATOM     13  C   UNL d   1     108.878 148.358 181.163  0.00  0.00    -0.047 C 
ATOM     14  C   UNL d   1     107.036 147.302 179.817  0.00  0.00     0.006 C 
ATOM     15  C   UNL d   1     109.043 149.205 182.192  0.00  0.00    -0.035 C 
ATOM     16  C   UNL d   1     108.578 145.877 181.237  0.00  0.00     0.004 C 
ATOM     17  C   UNL d   1     109.738 148.494 179.922  0.00  0.00     0.051 C 
ATOM     18  C   UNL d   1     107.914 147.395 178.568  0.00  0.00     0.030 C 
ATOM     19  C   UNL d   1     108.891 148.564 178.652  0.00  0.00     0.115 C 
ENDROOT
BRANCH   5  20
ATOM     20  C   UNL d   1     104.618 145.579 187.293  0.00  0.00     0.000 C 
ATOM     21  C   UNL d   1     103.093 145.438 187.379  0.00  0.00     0.000 C 
BRANCH  20  22
ATOM     22  C   UNL d   1     105.237 145.763 188.710  0.00  0.00     0.000 C 
BRANCH  22  23
ATOM     23  C   UNL d   1     106.101 144.623 189.268  0.00  0.00     0.000 C 
BRANCH  23  24
ATOM     24  C   UNL d   1     107.328 144.229 188.435  0.00  0.00     0.000 C 
BRANCH  24  25
ATOM     25  C   UNL d   1     108.685 144.680 189.005  0.00  0.00     0.000 C 
ATOM     26  C   UNL d   1     109.859 144.107 188.205  0.00  0.00     0.000 C 
ATOM     27  C   UNL d   1     108.767 146.208 189.022  0.00  0.00     0.000 C 
ENDBRANCH  24  25
ENDBRANCH  23  24
ENDBRANCH  22  23
ENDBRANCH  20  22
ENDBRANCH   5  20
BRANCH  19  28
ATOM     28  O   UNL d   1     109.759 148.538 177.520  0.00  0.00    -0.385 OA
ATOM     29  H   UNL d   1     109.654 149.387 177.052  0.00  0.00     0.210 HD
ENDBRANCH  19  28
TORSDOF 6
ENDMDL
MODEL 9
REMARK VINA RESULT:    -6.684     29.587     32.411
REMARK INTER + INTRA:         -10.552
REMARK INTER:                 -10.020
REMARK INTRA:                  -0.532
REMARK UNBOUND:                -1.719
REMARK  6 active torsions:
REMARK  status: ('A' for Active; 'I' for Inactive)
REMARK    1  A    between atoms: O_1  and  C_22 
REMARK    2  A    between atoms: C_6  and  C_13 
REMARK    3  A    between atoms: C_13  and  C_21 
REMARK    4  A    between atoms: C_21  and  C_24 
REMARK    5  A    between atoms: C_24  and  C_25 
REMARK    6  A    between atoms: C_25  and  C_26 
ROOT
ATOM      1  C   UNL d   1     127.700 141.341 199.087  0.00  0.00     0.000 C 
ATOM      2  C   UNL d   1     126.270 141.536 199.653  0.00  0.00     0.000 C 
ATOM      3  C   UNL d   1     125.345 140.368 199.307  0.00  0.00     0.005 C 
ATOM      4  C   UNL d   1     125.915 139.049 199.904  0.00  0.00     0.004 C 
ATOM      5  C   UNL d   1     128.352 142.718 199.434  0.00  0.00     0.000 C 
ATOM      6  C   UNL d   1     128.278 140.145 199.868  0.00  0.00     0.000 C 
ATOM      7  C   UNL d   1     125.045 137.802 199.466  0.00  0.00     0.015 C 
ATOM      8  C   UNL d   1     125.879 142.923 199.179  0.00  0.00     0.000 C 
ATOM      9  C   UNL d   1     127.442 138.869 199.665  0.00  0.00     0.000 C 
ATOM     10  C   UNL d   1     127.172 143.730 199.321  0.00  0.00     0.000 C 
ATOM     11  C   UNL d   1     123.913 140.603 199.806  0.00  0.00     0.025 C 
ATOM     12  C   UNL d   1     127.695 141.076 197.560  0.00  0.00     0.000 C 
ATOM     13  C   UNL d   1     123.547 138.128 199.552  0.00  0.00    -0.047 C 
ATOM     14  C   UNL d   1     125.357 136.623 200.433  0.00  0.00     0.006 C 
ATOM     15  C   UNL d   1     123.068 139.370 199.727  0.00  0.00    -0.035 C 
ATOM     16  C   UNL d   1     125.368 137.376 198.013  0.00  0.00     0.004 C 
ATOM     17  C   UNL d   1     122.593 136.954 199.444  0.00  0.00     0.051 C 
ATOM     18  C   UNL d   1     124.417 135.426 200.284  0.00  0.00     0.030 C 
ATOM     19  C   UNL d   1     122.954 135.840 200.423  0.00  0.00     0.115 C 
ENDROOT
BRANCH   5  20
ATOM     20  C   UNL d   1     129.612 143.211 198.641  0.00  0.00     0.000 C 
ATOM     21  C   UNL d   1     129.250 143.932 197.337  0.00  0.00     0.000 C 
BRANCH  20  22
ATOM     22  C   UNL d   1     130.553 142.003 198.363  0.00  0.00     0.000 C 
BRANCH  22  23
ATOM     23  C   UNL d   1     131.793 141.839 199.255  0.00  0.00     0.000 C 
BRANCH  23  24
ATOM     24  C   UNL d   1     132.003 142.912 200.331  0.00  0.00     0.000 C 
BRANCH  24  25
ATOM     25  C   UNL d   1     131.810 142.438 201.782  0.00  0.00     0.000 C 
ATOM     26  C   UNL d   1     132.997 142.823 202.671  0.00  0.00     0.000 C 
ATOM     27  C   UNL d   1     130.519 143.025 202.361  0.00  0.00     0.000 C 
ENDBRANCH  24  25
ENDBRANCH  23  24
ENDBRANCH  22  23
ENDBRANCH  20  22
ENDBRANCH   5  20
BRANCH  19  28
ATOM     28  O   UNL d   1     122.118 134.713 200.165  0.00  0.00    -0.385 OA
ATOM     29  H   UNL d   1     121.745 134.824 199.271  0.00  0.00     0.210 HD
ENDBRANCH  19  28
TORSDOF 6
ENDMDL
MODEL 10
REMARK VINA RESULT:    -6.649     15.803     18.613
REMARK INTER + INTRA:         -10.506
REMARK INTER:                  -9.132
REMARK INTRA:                  -1.375
REMARK UNBOUND:                -1.719
REMARK  6 active torsions:
REMARK  status: ('A' for Active; 'I' for Inactive)
REMARK    1  A    between atoms: O_1  and  C_22 
REMARK    2  A    between atoms: C_6  and  C_13 
REMARK    3  A    between atoms: C_13  and  C_21 
REMARK    4  A    between atoms: C_21  and  C_24 
REMARK    5  A    between atoms: C_24  and  C_25 
REMARK    6  A    between atoms: C_25  and  C_26 
ROOT
ATOM      1  C   UNL d   1     133.845 116.777 157.882  0.00  0.00     0.000 C 
ATOM      2  C   UNL d   1     133.518 118.169 158.479  0.00  0.00     0.000 C 
ATOM      3  C   UNL d   1     133.453 119.259 157.409  0.00  0.00     0.005 C 
ATOM      4  C   UNL d   1     132.343 118.917 156.374  0.00  0.00     0.004 C 
ATOM      5  C   UNL d   1     134.013 115.923 159.179  0.00  0.00     0.000 C 
ATOM      6  C   UNL d   1     132.614 116.411 157.030  0.00  0.00     0.000 C 
ATOM      7  C   UNL d   1     132.327 119.963 155.187  0.00  0.00     0.015 C 
ATOM      8  C   UNL d   1     134.528 118.328 159.601  0.00  0.00     0.000 C 
ATOM      9  C   UNL d   1     132.369 117.433 155.907  0.00  0.00     0.000 C 
ATOM     10  C   UNL d   1     134.608 116.927 160.213  0.00  0.00     0.000 C 
ATOM     11  C   UNL d   1     133.204 120.647 158.017  0.00  0.00     0.025 C 
ATOM     12  C   UNL d   1     135.141 116.793 157.032  0.00  0.00     0.000 C 
ATOM     13  C   UNL d   1     132.497 121.393 155.722  0.00  0.00    -0.047 C 
ATOM     14  C   UNL d   1     130.954 119.860 154.462  0.00  0.00     0.006 C 
ATOM     15  C   UNL d   1     132.862 121.674 156.983  0.00  0.00    -0.035 C 
ATOM     16  C   UNL d   1     133.466 119.683 154.176  0.00  0.00     0.004 C 
ATOM     17  C   UNL d   1     132.214 122.518 154.744  0.00  0.00     0.051 C 
ATOM     18  C   UNL d   1     130.697 120.975 153.446  0.00  0.00     0.030 C 
ATOM     19  C   UNL d   1     130.851 122.356 154.076  0.00  0.00     0.115 C 
ENDROOT
BRANCH   5  20
ATOM     20  C   UNL d   1     134.831 114.586 159.138  0.00  0.00     0.000 C 
ATOM     21  C   UNL d   1     134.023 113.412 158.572  0.00  0.00     0.000 C 
BRANCH  20  22
ATOM     22  C   UNL d   1     135.357 114.258 160.565  0.00  0.00     0.000 C 
BRANCH  22  23
ATOM     23  C   UNL d   1     136.717 113.556 160.685  0.00  0.00     0.000 C 
BRANCH  23  24
ATOM     24  C   UNL d   1     137.950 114.399 160.335  0.00  0.00     0.000 C 
BRANCH  24  25
ATOM     25  C   UNL d   1     138.580 114.108 158.961  0.00  0.00     0.000 C 
ATOM     26  C   UNL d   1     138.016 112.830 158.333  0.00  0.00     0.000 C 
ATOM     27  C   UNL d   1     138.353 115.292 158.017  0.00  0.00     0.000 C 
ENDBRANCH  24  25
ENDBRANCH  23  24
ENDBRANCH  22  23
ENDBRANCH  20  22
ENDBRANCH   5  20
BRANCH  19  28
ATOM     28  O   UNL d   1     130.714 123.354 153.066  0.00  0.00    -0.385 OA
ATOM     29  H   UNL d   1     131.516 123.323 152.513  0.00  0.00     0.210 HD
ENDBRANCH  19  28
TORSDOF 6
ENDMDL
MODEL 11
REMARK VINA RESULT:    -6.590     28.912     31.028
REMARK INTER + INTRA:         -10.428
REMARK INTER:                  -9.173
REMARK INTRA:                  -1.255
REMARK UNBOUND:                -1.719
REMARK  6 active torsions:
REMARK  status: ('A' for Active; 'I' for Inactive)
REMARK    1  A    between atoms: O_1  and  C_22 
REMARK    2  A    between atoms: C_6  and  C_13 
REMARK    3  A    between atoms: C_13  and  C_21 
REMARK    4  A    between atoms: C_21  and  C_24 
REMARK    5  A    between atoms: C_24  and  C_25 
REMARK    6  A    between atoms: C_25  and  C_26 
ROOT
ATOM      1  C   UNL d   1     125.072 139.995 197.843  0.00  0.00     0.000 C 
ATOM      2  C   UNL d   1     125.910 138.810 198.389  0.00  0.00     0.000 C 
ATOM      3  C   UNL d   1     125.043 137.757 199.083  0.00  0.00     0.005 C 
ATOM      4  C   UNL d   1     124.009 137.179 198.075  0.00  0.00     0.004 C 
ATOM      5  C   UNL d   1     126.198 140.963 197.358  0.00  0.00     0.000 C 
ATOM      6  C   UNL d   1     124.218 139.389 196.712  0.00  0.00     0.000 C 
ATOM      7  C   UNL d   1     123.019 136.173 198.789  0.00  0.00     0.015 C 
ATOM      8  C   UNL d   1     127.004 139.482 199.198  0.00  0.00     0.000 C 
ATOM      9  C   UNL d   1     123.295 138.271 197.226  0.00  0.00     0.000 C 
ATOM     10  C   UNL d   1     127.364 140.713 198.362  0.00  0.00     0.000 C 
ATOM     11  C   UNL d   1     125.888 136.626 199.686  0.00  0.00     0.025 C 
ATOM     12  C   UNL d   1     124.189 140.643 198.939  0.00  0.00     0.000 C 
ATOM     13  C   UNL d   1     123.781 135.254 199.754  0.00  0.00    -0.047 C 
ATOM     14  C   UNL d   1     122.338 135.297 197.697  0.00  0.00     0.006 C 
ATOM     15  C   UNL d   1     125.057 135.459 200.119  0.00  0.00    -0.035 C 
ATOM     16  C   UNL d   1     121.932 136.929 199.593  0.00  0.00     0.004 C 
ATOM     17  C   UNL d   1     123.021 134.056 200.290  0.00  0.00     0.051 C 
ATOM     18  C   UNL d   1     121.537 134.117 198.250  0.00  0.00     0.030 C 
ATOM     19  C   UNL d   1     122.387 133.240 199.166  0.00  0.00     0.115 C 
ENDROOT
BRANCH   5  20
ATOM     20  C   UNL d   1     125.899 142.492 197.192  0.00  0.00     0.000 C 
ATOM     21  C   UNL d   1     126.058 142.976 195.745  0.00  0.00     0.000 C 
BRANCH  20  22
ATOM     22  C   UNL d   1     126.816 143.305 198.151  0.00  0.00     0.000 C 
BRANCH  22  23
ATOM     23  C   UNL d   1     126.288 143.613 199.560  0.00  0.00     0.000 C 
BRANCH  23  24
ATOM     24  C   UNL d   1     127.284 144.257 200.532  0.00  0.00     0.000 C 
BRANCH  24  25
ATOM     25  C   UNL d   1     128.086 143.274 201.404  0.00  0.00     0.000 C 
ATOM     26  C   UNL d   1     127.267 142.031 201.765  0.00  0.00     0.000 C 
ATOM     27  C   UNL d   1     129.369 142.856 200.681  0.00  0.00     0.000 C 
ENDBRANCH  24  25
ENDBRANCH  23  24
ENDBRANCH  22  23
ENDBRANCH  20  22
ENDBRANCH   5  20
BRANCH  19  28
ATOM     28  O   UNL d   1     121.567 132.224 199.742  0.00  0.00    -0.385 OA
ATOM     29  H   UNL d   1     120.639 132.456 199.553  0.00  0.00     0.210 HD
ENDBRANCH  19  28
TORSDOF 6
ENDMDL
MODEL 12
REMARK VINA RESULT:    -6.587     29.254     31.924
REMARK INTER + INTRA:         -10.424
REMARK INTER:                  -8.961
REMARK INTRA:                  -1.462
REMARK UNBOUND:                -1.719
REMARK  6 active torsions:
REMARK  status: ('A' for Active; 'I' for Inactive)
REMARK    1  A    between atoms: O_1  and  C_22 
REMARK    2  A    between atoms: C_6  and  C_13 
REMARK    3  A    between atoms: C_13  and  C_21 
REMARK    4  A    between atoms: C_21  and  C_24 
REMARK    5  A    between atoms: C_24  and  C_25 
REMARK    6  A    between atoms: C_25  and  C_26 
ROOT
ATOM      1  C   UNL d   1     127.456 140.154 200.280  0.00  0.00     0.000 C 
ATOM      2  C   UNL d   1     125.948 140.486 200.418  0.00  0.00     0.000 C 
ATOM      3  C   UNL d   1     125.066 139.511 199.637  0.00  0.00     0.005 C 
ATOM      4  C   UNL d   1     125.281 138.064 200.167  0.00  0.00     0.004 C 
ATOM      5  C   UNL d   1     128.102 141.373 201.012  0.00  0.00     0.000 C 
ATOM      6  C   UNL d   1     127.634 138.805 201.003  0.00  0.00     0.000 C 
ATOM      7  C   UNL d   1     124.472 137.014 199.303  0.00  0.00     0.015 C 
ATOM      8  C   UNL d   1     125.868 141.961 200.069  0.00  0.00     0.000 C 
ATOM      9  C   UNL d   1     126.780 137.695 200.367  0.00  0.00     0.000 C 
ATOM     10  C   UNL d   1     127.126 142.551 200.711  0.00  0.00     0.000 C 
ATOM     11  C   UNL d   1     123.580 139.891 199.718  0.00  0.00     0.025 C 
ATOM     12  C   UNL d   1     127.905 140.070 198.799  0.00  0.00     0.000 C 
ATOM     13  C   UNL d   1     123.064 137.540 198.989  0.00  0.00    -0.047 C 
ATOM     14  C   UNL d   1     124.343 135.699 200.125  0.00  0.00     0.006 C 
ATOM     15  C   UNL d   1     122.683 138.810 199.202  0.00  0.00    -0.035 C 
ATOM     16  C   UNL d   1     125.191 136.716 197.964  0.00  0.00     0.004 C 
ATOM     17  C   UNL d   1     122.079 136.536 198.422  0.00  0.00     0.051 C 
ATOM     18  C   UNL d   1     123.381 134.675 199.521  0.00  0.00     0.030 C 
ATOM     19  C   UNL d   1     121.998 135.276 199.281  0.00  0.00     0.115 C 
ENDROOT
BRANCH   5  20
ATOM     20  C   UNL d   1     129.590 141.768 200.716  0.00  0.00     0.000 C 
ATOM     21  C   UNL d   1     130.443 141.870 201.986  0.00  0.00     0.000 C 
BRANCH  20  22
ATOM     22  C   UNL d   1     129.621 143.105 199.921  0.00  0.00     0.000 C 
BRANCH  22  23
ATOM     23  C   UNL d   1     130.235 143.089 198.513  0.00  0.00     0.000 C 
BRANCH  23  24
ATOM     24  C   UNL d   1     129.352 143.629 197.381  0.00  0.00     0.000 C 
BRANCH  24  25
ATOM     25  C   UNL d   1     127.969 142.966 197.249  0.00  0.00     0.000 C 
ATOM     26  C   UNL d   1     126.841 144.002 197.211  0.00  0.00     0.000 C 
ATOM     27  C   UNL d   1     127.918 142.101 195.987  0.00  0.00     0.000 C 
ENDBRANCH  24  25
ENDBRANCH  23  24
ENDBRANCH  22  23
ENDBRANCH  20  22
ENDBRANCH   5  20
BRANCH  19  28
ATOM     28  O   UNL d   1     121.176 134.319 198.616  0.00  0.00    -0.385 OA
ATOM     29  H   UNL d   1     121.628 134.070 197.789  0.00  0.00     0.210 HD
ENDBRANCH  19  28
TORSDOF 6
ENDMDL
MODEL 13
REMARK VINA RESULT:    -6.579     23.639     28.467
REMARK INTER + INTRA:         -10.414
REMARK INTER:                  -9.028
REMARK INTRA:                  -1.386
REMARK UNBOUND:                -1.719
REMARK  6 active torsions:
REMARK  status: ('A' for Active; 'I' for Inactive)
REMARK    1  A    between atoms: O_1  and  C_22 
REMARK    2  A    between atoms: C_6  and  C_13 
REMARK    3  A    between atoms: C_13  and  C_21 
REMARK    4  A    between atoms: C_21  and  C_24 
REMARK    5  A    between atoms: C_24  and  C_25 
REMARK    6  A    between atoms: C_25  and  C_26 
ROOT
ATOM      1  C   UNL d   1     125.452 140.259 196.862  0.00  0.00     0.000 C 
ATOM      2  C   UNL d   1     125.590 140.565 195.349  0.00  0.00     0.000 C 
ATOM      3  C   UNL d   1     125.843 139.304 194.522  0.00  0.00     0.005 C 
ATOM      4  C   UNL d   1     124.657 138.311 194.697  0.00  0.00     0.004 C 
ATOM      5  C   UNL d   1     125.376 141.701 197.456  0.00  0.00     0.000 C 
ATOM      6  C   UNL d   1     124.149 139.446 196.986  0.00  0.00     0.000 C 
ATOM      7  C   UNL d   1     124.941 136.946 193.949  0.00  0.00     0.015 C 
ATOM      8  C   UNL d   1     126.624 141.675 195.296  0.00  0.00     0.000 C 
ATOM      9  C   UNL d   1     124.208 138.139 196.177  0.00  0.00     0.000 C 
ATOM     10  C   UNL d   1     126.278 142.546 196.506  0.00  0.00     0.000 C 
ATOM     11  C   UNL d   1     126.052 139.624 193.035  0.00  0.00     0.025 C 
ATOM     12  C   UNL d   1     126.669 139.473 197.414  0.00  0.00     0.000 C 
ATOM     13  C   UNL d   1     125.560 137.203 192.568  0.00  0.00    -0.047 C 
ATOM     14  C   UNL d   1     123.588 136.201 193.760  0.00  0.00     0.006 C 
ATOM     15  C   UNL d   1     126.024 138.400 192.174  0.00  0.00    -0.035 C 
ATOM     16  C   UNL d   1     125.912 136.053 194.760  0.00  0.00     0.004 C 
ATOM     17  C   UNL d   1     125.620 136.018 191.623  0.00  0.00     0.051 C 
ATOM     18  C   UNL d   1     123.668 134.981 192.841  0.00  0.00     0.030 C 
ATOM     19  C   UNL d   1     124.259 135.340 191.480  0.00  0.00     0.115 C 
ENDROOT
BRANCH   5  20
ATOM     20  C   UNL d   1     125.735 141.949 198.962  0.00  0.00     0.000 C 
ATOM     21  C   UNL d   1     124.572 141.635 199.911  0.00  0.00     0.000 C 
BRANCH  20  22
ATOM     22  C   UNL d   1     126.215 143.418 199.144  0.00  0.00     0.000 C 
BRANCH  22  23
ATOM     23  C   UNL d   1     127.605 143.649 199.756  0.00  0.00     0.000 C 
BRANCH  23  24
ATOM     24  C   UNL d   1     128.688 142.628 199.385  0.00  0.00     0.000 C 
BRANCH  24  25
ATOM     25  C   UNL d   1     129.814 143.159 198.480  0.00  0.00     0.000 C 
ATOM     26  C   UNL d   1     131.182 143.077 199.163  0.00  0.00     0.000 C 
ATOM     27  C   UNL d   1     129.845 142.377 197.164  0.00  0.00     0.000 C 
ENDBRANCH  24  25
ENDBRANCH  23  24
ENDBRANCH  22  23
ENDBRANCH  20  22
ENDBRANCH   5  20
BRANCH  19  28
ATOM     28  O   UNL d   1     124.416 134.153 190.705  0.00  0.00    -0.385 OA
ATOM     29  H   UNL d   1     124.787 133.468 191.291  0.00  0.00     0.210 HD
ENDBRANCH  19  28
TORSDOF 6
ENDMDL
MODEL 14
REMARK VINA RESULT:    -6.449     25.210     29.609
REMARK INTER + INTRA:         -10.242
REMARK INTER:                  -8.977
REMARK INTRA:                  -1.266
REMARK UNBOUND:                -1.719
REMARK  6 active torsions:
REMARK  status: ('A' for Active; 'I' for Inactive)
REMARK    1  A    between atoms: O_1  and  C_22 
REMARK    2  A    between atoms: C_6  and  C_13 
REMARK    3  A    between atoms: C_13  and  C_21 
REMARK    4  A    between atoms: C_21  and  C_24 
REMARK    5  A    between atoms: C_24  and  C_25 
REMARK    6  A    between atoms: C_25  and  C_26 
ROOT
ATOM      1  C   UNL d   1     124.713 140.250 197.809  0.00  0.00     0.000 C 
ATOM      2  C   UNL d   1     125.976 141.144 197.705  0.00  0.00     0.000 C 
ATOM      3  C   UNL d   1     127.011 140.575 196.734  0.00  0.00     0.005 C 
ATOM      4  C   UNL d   1     126.393 140.462 195.310  0.00  0.00     0.004 C 
ATOM      5  C   UNL d   1     123.933 140.963 198.960  0.00  0.00     0.000 C 
ATOM      6  C   UNL d   1     124.042 140.348 196.425  0.00  0.00     0.000 C 
ATOM      7  C   UNL d   1     127.398 139.767 194.305  0.00  0.00     0.015 C 
ATOM      8  C   UNL d   1     126.390 141.356 199.149  0.00  0.00     0.000 C 
ATOM      9  C   UNL d   1     124.965 139.844 195.302  0.00  0.00     0.000 C 
ATOM     10  C   UNL d   1     125.058 141.520 199.884  0.00  0.00     0.000 C 
ATOM     11  C   UNL d   1     128.288 141.426 196.693  0.00  0.00     0.025 C 
ATOM     12  C   UNL d   1     125.061 138.784 198.171  0.00  0.00     0.000 C 
ATOM     13  C   UNL d   1     128.824 140.300 194.509  0.00  0.00    -0.047 C 
ATOM     14  C   UNL d   1     126.945 140.095 192.853  0.00  0.00     0.006 C 
ATOM     15  C   UNL d   1     129.191 141.051 195.560  0.00  0.00    -0.035 C 
ATOM     16  C   UNL d   1     127.419 138.231 194.504  0.00  0.00     0.004 C 
ATOM     17  C   UNL d   1     129.837 139.946 193.437  0.00  0.00     0.051 C 
ATOM     18  C   UNL d   1     127.954 139.694 191.776  0.00  0.00     0.030 C 
ATOM     19  C   UNL d   1     129.330 140.300 192.041  0.00  0.00     0.115 C 
ENDROOT
BRANCH   5  20
ATOM     20  C   UNL d   1     122.851 140.176 199.778  0.00  0.00     0.000 C 
ATOM     21  C   UNL d   1     121.538 140.954 199.929  0.00  0.00     0.000 C 
BRANCH  20  22
ATOM     22  C   UNL d   1     123.433 139.795 201.170  0.00  0.00     0.000 C 
BRANCH  22  23
ATOM     23  C   UNL d   1     123.102 138.404 201.730  0.00  0.00     0.000 C 
BRANCH  23  24
ATOM     24  C   UNL d   1     123.847 137.222 201.097  0.00  0.00     0.000 C 
BRANCH  24  25
ATOM     25  C   UNL d   1     122.955 136.166 200.419  0.00  0.00     0.000 C 
ATOM     26  C   UNL d   1     122.077 136.778 199.323  0.00  0.00     0.000 C 
ATOM     27  C   UNL d   1     123.819 135.050 199.826  0.00  0.00     0.000 C 
ENDBRANCH  24  25
ENDBRANCH  23  24
ENDBRANCH  22  23
ENDBRANCH  20  22
ENDBRANCH   5  20
BRANCH  19  28
ATOM     28  O   UNL d   1     130.257 139.807 191.076  0.00  0.00    -0.385 OA
ATOM     29  H   UNL d   1     129.774 139.693 190.237  0.00  0.00     0.210 HD
ENDBRANCH  19  28
TORSDOF 6
ENDMDL
MODEL 15
REMARK VINA RESULT:    -6.391     55.040     60.109
REMARK INTER + INTRA:         -10.165
REMARK INTER:                  -8.561
REMARK INTRA:                  -1.603
REMARK UNBOUND:                -1.719
REMARK  6 active torsions:
REMARK  status: ('A' for Active; 'I' for Inactive)
REMARK    1  A    between atoms: O_1  and  C_22 
REMARK    2  A    between atoms: C_6  and  C_13 
REMARK    3  A    between atoms: C_13  and  C_21 
REMARK    4  A    between atoms: C_21  and  C_24 
REMARK    5  A    between atoms: C_24  and  C_25 
REMARK    6  A    between atoms: C_25  and  C_26 
ROOT
ATOM      1  C   UNL d   1     113.796 142.184 225.210  0.00  0.00     0.000 C 
ATOM      2  C   UNL d   1     112.730 141.708 226.230  0.00  0.00     0.000 C 
ATOM      3  C   UNL d   1     112.368 142.796 227.242  0.00  0.00     0.005 C 
ATOM      4  C   UNL d   1     111.791 144.036 226.499  0.00  0.00     0.004 C 
ATOM      5  C   UNL d   1     114.087 140.859 224.436  0.00  0.00     0.000 C 
ATOM      6  C   UNL d   1     113.090 143.270 224.375  0.00  0.00     0.000 C 
ATOM      7  C   UNL d   1     111.516 145.226 227.505  0.00  0.00     0.015 C 
ATOM      8  C   UNL d   1     113.290 140.400 226.756  0.00  0.00     0.000 C 
ATOM      9  C   UNL d   1     112.617 144.447 225.246  0.00  0.00     0.000 C 
ATOM     10  C   UNL d   1     113.907 139.749 225.516  0.00  0.00     0.000 C 
ATOM     11  C   UNL d   1     111.368 142.293 228.293  0.00  0.00     0.025 C 
ATOM     12  C   UNL d   1     115.067 142.735 225.904  0.00  0.00     0.000 C 
ATOM     13  C   UNL d   1     110.870 144.706 228.797  0.00  0.00    -0.047 C 
ATOM     14  C   UNL d   1     110.538 146.227 226.824  0.00  0.00     0.006 C 
ATOM     15  C   UNL d   1     110.793 143.403 229.115  0.00  0.00    -0.035 C 
ATOM     16  C   UNL d   1     112.827 145.961 227.878  0.00  0.00     0.004 C 
ATOM     17  C   UNL d   1     110.287 145.751 229.729  0.00  0.00     0.051 C 
ATOM     18  C   UNL d   1     109.990 147.304 227.762  0.00  0.00     0.030 C 
ATOM     19  C   UNL d   1     109.333 146.692 228.997  0.00  0.00     0.115 C 
ENDROOT
BRANCH   5  20
ATOM     20  C   UNL d   1     115.433 140.687 223.652  0.00  0.00     0.000 C 
ATOM     21  C   UNL d   1     115.246 140.726 222.131  0.00  0.00     0.000 C 
BRANCH  20  22
ATOM     22  C   UNL d   1     116.121 139.362 224.091  0.00  0.00     0.000 C 
BRANCH  22  23
ATOM     23  C   UNL d   1     117.563 139.441 224.614  0.00  0.00     0.000 C 
BRANCH  23  24
ATOM     24  C   UNL d   1     117.925 140.694 225.422  0.00  0.00     0.000 C 
BRANCH  24  25
ATOM     25  C   UNL d   1     118.176 140.462 226.923  0.00  0.00     0.000 C 
ATOM     26  C   UNL d   1     118.793 141.692 227.596  0.00  0.00     0.000 C 
ATOM     27  C   UNL d   1     116.867 140.091 227.625  0.00  0.00     0.000 C 
ENDBRANCH  24  25
ENDBRANCH  23  24
ENDBRANCH  22  23
ENDBRANCH  20  22
ENDBRANCH   5  20
BRANCH  19  28
ATOM     28  O   UNL d   1     108.942 147.734 229.889  0.00  0.00    -0.385 OA
ATOM     29  H   UNL d   1     107.967 147.746 229.916  0.00  0.00     0.210 HD
ENDBRANCH  19  28
TORSDOF 6
ENDMDL
MODEL 16
REMARK VINA RESULT:    -6.339      3.518      6.716
REMARK INTER + INTRA:         -10.096
REMARK INTER:                  -8.559
REMARK INTRA:                  -1.537
REMARK UNBOUND:                -1.719
REMARK  6 active torsions:
REMARK  status: ('A' for Active; 'I' for Inactive)
REMARK    1  A    between atoms: O_1  and  C_22 
REMARK    2  A    between atoms: C_6  and  C_13 
REMARK    3  A    between atoms: C_13  and  C_21 
REMARK    4  A    between atoms: C_21  and  C_24 
REMARK    5  A    between atoms: C_24  and  C_25 
REMARK    6  A    between atoms: C_25  and  C_26 
ROOT
ATOM      1  C   UNL d   1     130.050 120.840 170.795  0.00  0.00     0.000 C 
ATOM      2  C   UNL d   1     129.602 120.276 169.423  0.00  0.00     0.000 C 
ATOM      3  C   UNL d   1     129.861 118.774 169.301  0.00  0.00     0.005 C 
ATOM      4  C   UNL d   1     129.072 118.012 170.404  0.00  0.00     0.004 C 
ATOM      5  C   UNL d   1     129.832 122.372 170.578  0.00  0.00     0.000 C 
ATOM      6  C   UNL d   1     129.094 120.198 171.820  0.00  0.00     0.000 C 
ATOM      7  C   UNL d   1     129.409 116.466 170.381  0.00  0.00     0.015 C 
ATOM      8  C   UNL d   1     130.265 121.200 168.418  0.00  0.00     0.000 C 
ATOM      9  C   UNL d   1     129.192 118.663 171.812  0.00  0.00     0.000 C 
ATOM     10  C   UNL d   1     130.141 122.582 169.065  0.00  0.00     0.000 C 
ATOM     11  C   UNL d   1     129.484 118.238 167.912  0.00  0.00     0.025 C 
ATOM     12  C   UNL d   1     131.530 120.509 171.111  0.00  0.00     0.000 C 
ATOM     13  C   UNL d   1     129.457 115.942 168.939  0.00  0.00    -0.047 C 
ATOM     14  C   UNL d   1     128.288 115.709 171.151  0.00  0.00     0.006 C 
ATOM     15  C   UNL d   1     129.466 116.742 167.860  0.00  0.00    -0.035 C 
ATOM     16  C   UNL d   1     130.777 116.179 171.049  0.00  0.00     0.004 C 
ATOM     17  C   UNL d   1     129.482 114.436 168.767  0.00  0.00     0.051 C 
ATOM     18  C   UNL d   1     128.348 114.187 171.008  0.00  0.00     0.030 C 
ATOM     19  C   UNL d   1     128.353 113.760 169.542  0.00  0.00     0.115 C 
ENDROOT
BRANCH   5  20
ATOM     20  C   UNL d   1     130.598 123.408 171.471  0.00  0.00     0.000 C 
ATOM     21  C   UNL d   1     129.882 123.696 172.796  0.00  0.00     0.000 C 
BRANCH  20  22
ATOM     22  C   UNL d   1     130.821 124.720 170.665  0.00  0.00     0.000 C 
BRANCH  22  23
ATOM     23  C   UNL d   1     129.839 125.878 170.894  0.00  0.00     0.000 C 
BRANCH  23  24
ATOM     24  C   UNL d   1     128.746 126.061 169.834  0.00  0.00     0.000 C 
BRANCH  24  25
ATOM     25  C   UNL d   1     127.310 125.776 170.310  0.00  0.00     0.000 C 
ATOM     26  C   UNL d   1     126.895 124.327 170.040  0.00  0.00     0.000 C 
ATOM     27  C   UNL d   1     127.181 126.081 171.805  0.00  0.00     0.000 C 
ENDBRANCH  24  25
ENDBRANCH  23  24
ENDBRANCH  22  23
ENDBRANCH  20  22
ENDBRANCH   5  20
BRANCH  19  28
ATOM     28  O   UNL d   1     128.524 112.346 169.463  0.00  0.00    -0.385 OA
ATOM     29  H   UNL d   1     128.512 112.103 168.519  0.00  0.00     0.210 HD
ENDBRANCH  19  28
TORSDOF 6
ENDMDL
MODEL 17
REMARK VINA RESULT:    -6.174     33.701     37.499
REMARK INTER + INTRA:          -9.878
REMARK INTER:                  -8.783
REMARK INTRA:                  -1.095
REMARK UNBOUND:                -1.719
REMARK  6 active torsions:
REMARK  status: ('A' for Active; 'I' for Inactive)
REMARK    1  A    between atoms: O_1  and  C_22 
REMARK    2  A    between atoms: C_6  and  C_13 
REMARK    3  A    between atoms: C_13  and  C_21 
REMARK    4  A    between atoms: C_21  and  C_24 
REMARK    5  A    between atoms: C_24  and  C_25 
REMARK    6  A    between atoms: C_25  and  C_26 
ROOT
ATOM      1  C   UNL d   1      98.367 147.694 174.178  0.00  0.00     0.000 C 
ATOM      2  C   UNL d   1      97.028 147.005 173.814  0.00  0.00     0.000 C 
ATOM      3  C   UNL d   1      97.143 146.137 172.559  0.00  0.00     0.005 C 
ATOM      4  C   UNL d   1      98.203 145.021 172.786  0.00  0.00     0.004 C 
ATOM      5  C   UNL d   1      97.921 148.618 175.356  0.00  0.00     0.000 C 
ATOM      6  C   UNL d   1      99.308 146.544 174.587  0.00  0.00     0.000 C 
ATOM      7  C   UNL d   1      98.433 144.177 171.468  0.00  0.00     0.015 C 
ATOM      8  C   UNL d   1      96.024 148.143 173.806  0.00  0.00     0.000 C 
ATOM      9  C   UNL d   1      99.516 145.537 173.443  0.00  0.00     0.000 C 
ATOM     10  C   UNL d   1      96.459 149.012 174.988  0.00  0.00     0.000 C 
ATOM     11  C   UNL d   1      95.795 145.518 172.163  0.00  0.00     0.025 C 
ATOM     12  C   UNL d   1      98.947 148.510 172.995  0.00  0.00     0.000 C 
ATOM     13  C   UNL d   1      97.096 143.870 170.779  0.00  0.00    -0.047 C 
ATOM     14  C   UNL d   1      99.115 142.833 171.859  0.00  0.00     0.006 C 
ATOM     15  C   UNL d   1      95.936 144.457 171.117  0.00  0.00    -0.035 C 
ATOM     16  C   UNL d   1      99.335 144.938 170.465  0.00  0.00     0.004 C 
ATOM     17  C   UNL d   1      97.128 142.834 169.672  0.00  0.00     0.051 C 
ATOM     18  C   UNL d   1      99.182 141.811 170.723  0.00  0.00     0.030 C 
ATOM     19  C   UNL d   1      97.803 141.542 170.126  0.00  0.00     0.115 C 
ENDROOT
BRANCH   5  20
ATOM     20  C   UNL d   1      98.779 149.874 175.736  0.00  0.00     0.000 C 
ATOM     21  C   UNL d   1      99.130 149.926 177.228  0.00  0.00     0.000 C 
BRANCH  20  22
ATOM     22  C   UNL d   1      98.027 151.164 175.299  0.00  0.00     0.000 C 
BRANCH  22  23
ATOM     23  C   UNL d   1      98.781 152.499 175.388  0.00  0.00     0.000 C 
BRANCH  23  24
ATOM     24  C   UNL d   1      98.218 153.533 176.372  0.00  0.00     0.000 C 
BRANCH  24  25
ATOM     25  C   UNL d   1      99.127 153.873 177.566  0.00  0.00     0.000 C 
ATOM     26  C   UNL d   1      98.615 153.252 178.869  0.00  0.00     0.000 C 
ATOM     27  C   UNL d   1     100.556 153.395 177.292  0.00  0.00     0.000 C 
ENDBRANCH  24  25
ENDBRANCH  23  24
ENDBRANCH  22  23
ENDBRANCH  20  22
ENDBRANCH   5  20
BRANCH  19  28
ATOM     28  O   UNL d   1      97.935 140.673 169.003  0.00  0.00    -0.385 OA
ATOM     29  H   UNL d   1      97.041 140.513 168.650  0.00  0.00     0.210 HD
ENDBRANCH  19  28
TORSDOF 6
ENDMDL
MODEL 18
REMARK VINA RESULT:    -6.145     31.859     35.103
REMARK INTER + INTRA:          -9.840
REMARK INTER:                  -8.831
REMARK INTRA:                  -1.009
REMARK UNBOUND:                -1.719
REMARK  6 active torsions:
REMARK  status: ('A' for Active; 'I' for Inactive)
REMARK    1  A    between atoms: O_1  and  C_22 
REMARK    2  A    between atoms: C_6  and  C_13 
REMARK    3  A    between atoms: C_13  and  C_21 
REMARK    4  A    between atoms: C_21  and  C_24 
REMARK    5  A    between atoms: C_24  and  C_25 
REMARK    6  A    between atoms: C_25  and  C_26 
ROOT
ATOM      1  C   UNL d   1     105.579 147.563 186.555  0.00  0.00     0.000 C 
ATOM      2  C   UNL d   1     106.955 146.858 186.674  0.00  0.00     0.000 C 
ATOM      3  C   UNL d   1     108.002 147.469 185.742  0.00  0.00     0.005 C 
ATOM      4  C   UNL d   1     108.209 148.971 186.093  0.00  0.00     0.004 C 
ATOM      5  C   UNL d   1     104.693 146.650 187.461  0.00  0.00     0.000 C 
ATOM      6  C   UNL d   1     105.811 148.982 187.110  0.00  0.00     0.000 C 
ATOM      7  C   UNL d   1     109.199 149.664 185.073  0.00  0.00     0.015 C 
ATOM      8  C   UNL d   1     106.623 145.387 186.511  0.00  0.00     0.000 C 
ATOM      9  C   UNL d   1     106.877 149.746 186.305  0.00  0.00     0.000 C 
ATOM     10  C   UNL d   1     105.305 145.229 187.272  0.00  0.00     0.000 C 
ATOM     11  C   UNL d   1     109.339 146.718 185.811  0.00  0.00     0.025 C 
ATOM     12  C   UNL d   1     105.063 147.599 185.095  0.00  0.00     0.000 C 
ATOM     13  C   UNL d   1     110.396 148.750 184.772  0.00  0.00    -0.047 C 
ATOM     14  C   UNL d   1     109.725 150.980 185.717  0.00  0.00     0.006 C 
ATOM     15  C   UNL d   1     110.448 147.456 185.128  0.00  0.00    -0.035 C 
ATOM     16  C   UNL d   1     108.489 149.993 183.737  0.00  0.00     0.004 C 
ATOM     17  C   UNL d   1     111.565 149.385 184.044  0.00  0.00     0.051 C 
ATOM     18  C   UNL d   1     110.875 151.636 184.951  0.00  0.00     0.030 C 
ATOM     19  C   UNL d   1     112.032 150.665 184.734  0.00  0.00     0.115 C 
ENDROOT
BRANCH   5  20
ATOM     20  C   UNL d   1     103.136 146.636 187.277  0.00  0.00     0.000 C 
ATOM     21  C   UNL d   1     102.433 147.751 188.062  0.00  0.00     0.000 C 
BRANCH  20  22
ATOM     22  C   UNL d   1     102.580 145.240 187.681  0.00  0.00     0.000 C 
BRANCH  22  23
ATOM     23  C   UNL d   1     101.778 145.137 188.986  0.00  0.00     0.000 C 
BRANCH  23  24
ATOM     24  C   UNL d   1     100.296 144.766 188.845  0.00  0.00     0.000 C 
BRANCH  24  25
ATOM     25  C   UNL d   1      99.750 144.763 187.406  0.00  0.00     0.000 C 
ATOM     26  C   UNL d   1      98.705 143.664 187.193  0.00  0.00     0.000 C 
ATOM     27  C   UNL d   1      99.141 146.127 187.072  0.00  0.00     0.000 C 
ENDBRANCH  24  25
ENDBRANCH  23  24
ENDBRANCH  22  23
ENDBRANCH  20  22
ENDBRANCH   5  20
BRANCH  19  28
ATOM     28  O   UNL d   1     113.025 151.288 183.921  0.00  0.00    -0.385 OA
ATOM     29  H   UNL d   1     112.588 152.002 183.421  0.00  0.00     0.210 HD
ENDBRANCH  19  28
TORSDOF 6
ENDMDL
MODEL 19
REMARK VINA RESULT:    -6.143     13.578     16.609
REMARK INTER + INTRA:          -9.837
REMARK INTER:                  -8.713
REMARK INTRA:                  -1.125
REMARK UNBOUND:                -1.719
REMARK  6 active torsions:
REMARK  status: ('A' for Active; 'I' for Inactive)
REMARK    1  A    between atoms: O_1  and  C_22 
REMARK    2  A    between atoms: C_6  and  C_13 
REMARK    3  A    between atoms: C_13  and  C_21 
REMARK    4  A    between atoms: C_21  and  C_24 
REMARK    5  A    between atoms: C_24  and  C_25 
REMARK    6  A    between atoms: C_25  and  C_26 
ROOT
ATOM      1  C   UNL d   1     128.627 138.171 177.898  0.00  0.00     0.000 C 
ATOM      2  C   UNL d   1     127.514 137.385 177.160  0.00  0.00     0.000 C 
ATOM      3  C   UNL d   1     126.236 138.209 176.991  0.00  0.00     0.005 C 
ATOM      4  C   UNL d   1     126.540 139.489 176.160  0.00  0.00     0.004 C 
ATOM      5  C   UNL d   1     129.713 137.062 178.075  0.00  0.00     0.000 C 
ATOM      6  C   UNL d   1     129.022 139.304 176.930  0.00  0.00     0.000 C 
ATOM      7  C   UNL d   1     125.267 140.424 176.067  0.00  0.00     0.015 C 
ATOM      8  C   UNL d   1     127.426 136.077 177.925  0.00  0.00     0.000 C 
ATOM      9  C   UNL d   1     127.833 140.228 176.613  0.00  0.00     0.000 C 
ATOM     10  C   UNL d   1     128.886 135.753 178.251  0.00  0.00     0.000 C 
ATOM     11  C   UNL d   1     125.114 137.399 176.327  0.00  0.00     0.025 C 
ATOM     12  C   UNL d   1     128.147 138.728 179.261  0.00  0.00     0.000 C 
ATOM     13  C   UNL d   1     124.003 139.593 175.805  0.00  0.00    -0.047 C 
ATOM     14  C   UNL d   1     125.471 141.411 174.881  0.00  0.00     0.006 C 
ATOM     15  C   UNL d   1     123.962 138.254 175.903  0.00  0.00    -0.035 C 
ATOM     16  C   UNL d   1     125.062 141.226 177.375  0.00  0.00     0.004 C 
ATOM     17  C   UNL d   1     122.759 140.363 175.406  0.00  0.00     0.051 C 
ATOM     18  C   UNL d   1     124.222 142.216 174.514  0.00  0.00     0.030 C 
ATOM     19  C   UNL d   1     123.029 141.306 174.235  0.00  0.00     0.115 C 
ENDROOT
BRANCH   5  20
ATOM     20  C   UNL d   1     130.808 137.207 179.188  0.00  0.00     0.000 C 
ATOM     21  C   UNL d   1     132.177 137.611 178.628  0.00  0.00     0.000 C 
BRANCH  20  22
ATOM     22  C   UNL d   1     130.908 135.876 179.989  0.00  0.00     0.000 C 
BRANCH  22  23
ATOM     23  C   UNL d   1     132.260 135.523 180.627  0.00  0.00     0.000 C 
BRANCH  23  24
ATOM     24  C   UNL d   1     132.484 136.021 182.060  0.00  0.00     0.000 C 
BRANCH  24  25
ATOM     25  C   UNL d   1     133.635 137.028 182.237  0.00  0.00     0.000 C 
ATOM     26  C   UNL d   1     134.689 136.890 181.135  0.00  0.00     0.000 C 
ATOM     27  C   UNL d   1     133.087 138.457 182.253  0.00  0.00     0.000 C 
ENDBRANCH  24  25
ENDBRANCH  23  24
ENDBRANCH  22  23
ENDBRANCH  20  22
ENDBRANCH   5  20
BRANCH  19  28
ATOM     28  O   UNL d   1     121.868 142.104 174.011  0.00  0.00    -0.385 OA
ATOM     29  H   UNL d   1     122.171 142.990 173.739  0.00  0.00     0.210 HD
ENDBRANCH  19  28
TORSDOF 6
ENDMDL
MODEL 20
REMARK VINA RESULT:    -6.080     21.173     25.500
REMARK INTER + INTRA:          -9.754
REMARK INTER:                  -8.610
REMARK INTRA:                  -1.144
REMARK UNBOUND:                -1.719
REMARK  6 active torsions:
REMARK  status: ('A' for Active; 'I' for Inactive)
REMARK    1  A    between atoms: O_1  and  C_22 
REMARK    2  A    between atoms: C_6  and  C_13 
REMARK    3  A    between atoms: C_13  and  C_21 
REMARK    4  A    between atoms: C_21  and  C_24 
REMARK    5  A    between atoms: C_24  and  C_25 
REMARK    6  A    between atoms: C_25  and  C_26 
ROOT
ATOM      1  C   UNL d   1     136.260 143.262 183.650  0.00  0.00     0.000 C 
ATOM      2  C   UNL d   1     137.219 143.601 184.820  0.00  0.00     0.000 C 
ATOM      3  C   UNL d   1     137.530 145.097 184.900  0.00  0.00     0.005 C 
ATOM      4  C   UNL d   1     136.214 145.898 185.119  0.00  0.00     0.004 C 
ATOM      5  C   UNL d   1     136.258 141.701 183.705  0.00  0.00     0.000 C 
ATOM      6  C   UNL d   1     134.919 143.917 184.033  0.00  0.00     0.000 C 
ATOM      7  C   UNL d   1     136.484 147.457 185.089  0.00  0.00     0.015 C 
ATOM      8  C   UNL d   1     138.377 142.639 184.631  0.00  0.00     0.000 C 
ATOM      9  C   UNL d   1     135.049 145.441 184.194  0.00  0.00     0.000 C 
ATOM     10  C   UNL d   1     137.697 141.342 184.187  0.00  0.00     0.000 C 
ATOM     11  C   UNL d   1     138.537 145.415 186.014  0.00  0.00     0.025 C 
ATOM     12  C   UNL d   1     136.785 143.789 182.291  0.00  0.00     0.000 C 
ATOM     13  C   UNL d   1     137.760 147.802 185.870  0.00  0.00    -0.047 C 
ATOM     14  C   UNL d   1     135.277 148.176 185.759  0.00  0.00     0.006 C 
ATOM     15  C   UNL d   1     138.643 146.882 186.291  0.00  0.00    -0.035 C 
ATOM     16  C   UNL d   1     136.648 147.970 183.637  0.00  0.00     0.004 C 
ATOM     17  C   UNL d   1     137.990 149.270 186.174  0.00  0.00     0.051 C 
ATOM     18  C   UNL d   1     135.503 149.666 186.021  0.00  0.00     0.030 C 
ATOM     19  C   UNL d   1     136.771 149.908 186.835  0.00  0.00     0.115 C 
ENDROOT
BRANCH   5  20
ATOM     20  C   UNL d   1     135.852 140.872 182.438  0.00  0.00     0.000 C 
ATOM     21  C   UNL d   1     134.827 139.775 182.747  0.00  0.00     0.000 C 
BRANCH  20  22
ATOM     22  C   UNL d   1     137.129 140.267 181.785  0.00  0.00     0.000 C 
BRANCH  22  23
ATOM     23  C   UNL d   1     136.943 139.176 180.720  0.00  0.00     0.000 C 
BRANCH  23  24
ATOM     24  C   UNL d   1     136.737 139.661 179.280  0.00  0.00     0.000 C 
BRANCH  24  25
ATOM     25  C   UNL d   1     135.318 139.467 178.714  0.00  0.00     0.000 C 
ATOM     26  C   UNL d   1     134.659 138.193 179.250  0.00  0.00     0.000 C 
ATOM     27  C   UNL d   1     134.448 140.681 179.049  0.00  0.00     0.000 C 
ENDBRANCH  24  25
ENDBRANCH  23  24
ENDBRANCH  22  23
ENDBRANCH  20  22
ENDBRANCH   5  20
BRANCH  19  28
ATOM     28  O   UNL d   1     136.995 151.312 186.954  0.00  0.00    -0.385 OA
ATOM     29  H   UNL d   1     137.455 151.464 187.800  0.00  0.00     0.210 HD
ENDBRANCH  19  28
TORSDOF 6
ENDMDL
