MODEL 1
REMARK VINA RESULT:    -9.484      0.000      0.000
REMARK INTER + INTRA:         -13.271
REMARK INTER:                 -12.534
REMARK INTRA:                  -0.737
REMARK UNBOUND:                -0.737
REMARK  6 active torsions:
REMARK  status: ('A' for Active; 'I' for Inactive)
REMARK    1  A    between atoms: O_1  and  C_22 
REMARK    2  A    between atoms: C_6  and  C_13 
REMARK    3  A    between atoms: C_13  and  C_21 
REMARK    4  A    between atoms: C_21  and  C_24 
REMARK    5  A    between atoms: C_24  and  C_25 
REMARK    6  A    between atoms: C_25  and  C_26 
ROOT
ATOM      1  C   UNL d   1     128.121 131.306 158.191  0.00  0.00     0.000 C 
ATOM      2  C   UNL d   1     127.697 132.245 159.349  0.00  0.00     0.000 C 
ATOM      3  C   UNL d   1     126.753 131.558 160.337  0.00  0.00     0.005 C 
ATOM      4  C   UNL d   1     127.457 130.321 160.966  0.00  0.00     0.004 C 
ATOM      5  C   UNL d   1     128.916 132.293 157.277  0.00  0.00     0.000 C 
ATOM      6  C   UNL d   1     128.984 130.217 158.858  0.00  0.00     0.000 C 
ATOM      7  C   UNL d   1     126.468 129.519 161.904  0.00  0.00     0.015 C 
ATOM      8  C   UNL d   1     127.206 133.494 158.641  0.00  0.00     0.000 C 
ATOM      9  C   UNL d   1     128.197 129.434 159.923  0.00  0.00     0.000 C 
ATOM     10  C   UNL d   1     128.187 133.656 157.477  0.00  0.00     0.000 C 
ATOM     11  C   UNL d   1     126.279 132.517 161.439  0.00  0.00     0.025 C 
ATOM     12  C   UNL d   1     126.902 130.695 157.455  0.00  0.00     0.000 C 
ATOM     13  C   UNL d   1     125.638 130.480 162.767  0.00  0.00    -0.047 C 
ATOM     14  C   UNL d   1     127.313 128.608 162.842  0.00  0.00     0.006 C 
ATOM     15  C   UNL d   1     125.587 131.806 162.559  0.00  0.00    -0.035 C 
ATOM     16  C   UNL d   1     125.494 128.643 161.077  0.00  0.00     0.004 C 
ATOM     17  C   UNL d   1     124.861 129.861 163.913  0.00  0.00     0.051 C 
ATOM     18  C   UNL d   1     126.511 127.952 163.968  0.00  0.00     0.030 C 
ATOM     19  C   UNL d   1     125.752 128.988 164.794  0.00  0.00     0.115 C 
ENDROOT
BRANCH   5  20
ATOM     20  C   UNL d   1     129.118 131.965 155.758  0.00  0.00     0.000 C 
ATOM     21  C   UNL d   1     130.535 131.475 155.437  0.00  0.00     0.000 C 
BRANCH  20  22
ATOM     22  C   UNL d   1     128.760 133.218 154.907  0.00  0.00     0.000 C 
BRANCH  22  23
ATOM     23  C   UNL d   1     128.788 133.078 153.377  0.00  0.00     0.000 C 
BRANCH  23  24
ATOM     24  C   UNL d   1     129.665 134.083 152.620  0.00  0.00     0.000 C 
BRANCH  24  25
ATOM     25  C   UNL d   1     129.041 134.672 151.342  0.00  0.00     0.000 C 
ATOM     26  C   UNL d   1     129.165 133.715 150.152  0.00  0.00     0.000 C 
ATOM     27  C   UNL d   1     127.568 135.011 151.583  0.00  0.00     0.000 C 
ENDBRANCH  24  25
ENDBRANCH  23  24
ENDBRANCH  22  23
ENDBRANCH  20  22
ENDBRANCH   5  20
BRANCH  19  28
ATOM     28  O   UNL d   1     124.935 128.320 165.754  0.00  0.00    -0.385 OA
ATOM     29  H   UNL d   1     124.021 128.635 165.630  0.00  0.00     0.210 HD
ENDBRANCH  19  28
TORSDOF 6
ENDMDL
MODEL 2
REMARK VINA RESULT:    -8.522      6.021      9.252
REMARK INTER + INTRA:         -11.999
REMARK INTER:                 -10.845
REMARK INTRA:                  -1.154
REMARK UNBOUND:                -0.737
REMARK  6 active torsions:
REMARK  status: ('A' for Active; 'I' for Inactive)
REMARK    1  A    between atoms: O_1  and  C_22 
REMARK    2  A    between atoms: C_6  and  C_13 
REMARK    3  A    between atoms: C_13  and  C_21 
REMARK    4  A    between atoms: C_21  and  C_24 
REMARK    5  A    between atoms: C_24  and  C_25 
REMARK    6  A    between atoms: C_25  and  C_26 
ROOT
ATOM      1  C   UNL d   1     130.082 127.168 154.220  0.00  0.00     0.000 C 
ATOM      2  C   UNL d   1     131.096 127.775 155.224  0.00  0.00     0.000 C 
ATOM      3  C   UNL d   1     131.007 129.301 155.286  0.00  0.00     0.005 C 
ATOM      4  C   UNL d   1     129.581 129.728 155.738  0.00  0.00     0.004 C 
ATOM      5  C   UNL d   1     130.505 125.664 154.238  0.00  0.00     0.000 C 
ATOM      6  C   UNL d   1     128.697 127.450 154.834  0.00  0.00     0.000 C 
ATOM      7  C   UNL d   1     129.418 131.301 155.700  0.00  0.00     0.015 C 
ATOM      8  C   UNL d   1     132.420 127.152 154.824  0.00  0.00     0.000 C 
ATOM      9  C   UNL d   1     128.443 128.958 155.007  0.00  0.00     0.000 C 
ATOM     10  C   UNL d   1     132.046 125.711 154.468  0.00  0.00     0.000 C 
ATOM     11  C   UNL d   1     132.063 129.899 156.226  0.00  0.00     0.025 C 
ATOM     12  C   UNL d   1     130.216 127.786 152.805  0.00  0.00     0.000 C 
ATOM     13  C   UNL d   1     130.667 131.990 156.268  0.00  0.00    -0.047 C 
ATOM     14  C   UNL d   1     128.191 131.688 156.577  0.00  0.00     0.006 C 
ATOM     15  C   UNL d   1     131.819 131.347 156.516  0.00  0.00    -0.035 C 
ATOM     16  C   UNL d   1     129.197 131.808 154.254  0.00  0.00     0.004 C 
ATOM     17  C   UNL d   1     130.545 133.472 156.564  0.00  0.00     0.051 C 
ATOM     18  C   UNL d   1     128.052 133.189 156.833  0.00  0.00     0.030 C 
ATOM     19  C   UNL d   1     129.327 133.778 157.432  0.00  0.00     0.115 C 
ENDROOT
BRANCH   5  20
ATOM     20  C   UNL d   1     130.130 124.730 153.036  0.00  0.00     0.000 C 
ATOM     21  C   UNL d   1     129.044 123.707 153.392  0.00  0.00     0.000 C 
BRANCH  20  22
ATOM     22  C   UNL d   1     131.412 124.017 152.516  0.00  0.00     0.000 C 
BRANCH  22  23
ATOM     23  C   UNL d   1     131.534 122.503 152.745  0.00  0.00     0.000 C 
BRANCH  23  24
ATOM     24  C   UNL d   1     132.361 122.064 153.960  0.00  0.00     0.000 C 
BRANCH  24  25
ATOM     25  C   UNL d   1     131.548 121.547 155.161  0.00  0.00     0.000 C 
ATOM     26  C   UNL d   1     130.879 120.202 154.860  0.00  0.00     0.000 C 
ATOM     27  C   UNL d   1     132.451 121.412 156.389  0.00  0.00     0.000 C 
ENDBRANCH  24  25
ENDBRANCH  23  24
ENDBRANCH  22  23
ENDBRANCH  20  22
ENDBRANCH   5  20
BRANCH  19  28
ATOM     28  O   UNL d   1     129.186 135.193 157.545  0.00  0.00    -0.385 OA
ATOM     29  H   UNL d   1     129.938 135.520 158.073  0.00  0.00     0.210 HD
ENDBRANCH  19  28
TORSDOF 6
ENDMDL
MODEL 3
REMARK VINA RESULT:    -8.387      5.191      8.454
REMARK INTER + INTRA:         -11.820
REMARK INTER:                 -10.303
REMARK INTRA:                  -1.517
REMARK UNBOUND:                -0.737
REMARK  6 active torsions:
REMARK  status: ('A' for Active; 'I' for Inactive)
REMARK    1  A    between atoms: O_1  and  C_22 
REMARK    2  A    between atoms: C_6  and  C_13 
REMARK    3  A    between atoms: C_13  and  C_21 
REMARK    4  A    between atoms: C_21  and  C_24 
REMARK    5  A    between atoms: C_24  and  C_25 
REMARK    6  A    between atoms: C_25  and  C_26 
ROOT
ATOM      1  C   UNL d   1     129.707 129.954 154.986  0.00  0.00     0.000 C 
ATOM      2  C   UNL d   1     131.126 129.440 155.342  0.00  0.00     0.000 C 
ATOM      3  C   UNL d   1     131.167 127.921 155.515  0.00  0.00     0.005 C 
ATOM      4  C   UNL d   1     130.731 127.227 154.192  0.00  0.00     0.004 C 
ATOM      5  C   UNL d   1     129.924 131.500 155.039  0.00  0.00     0.000 C 
ATOM      6  C   UNL d   1     129.424 129.395 153.578  0.00  0.00     0.000 C 
ATOM      7  C   UNL d   1     130.648 125.658 154.372  0.00  0.00     0.015 C 
ATOM      8  C   UNL d   1     131.541 130.305 156.517  0.00  0.00     0.000 C 
ATOM      9  C   UNL d   1     129.460 127.857 153.553  0.00  0.00     0.000 C 
ATOM     10  C   UNL d   1     130.996 131.689 156.154  0.00  0.00     0.000 C 
ATOM     11  C   UNL d   1     132.558 127.429 155.940  0.00  0.00     0.025 C 
ATOM     12  C   UNL d   1     128.641 129.487 156.010  0.00  0.00     0.000 C 
ATOM     13  C   UNL d   1     131.848 125.140 155.178  0.00  0.00    -0.047 C 
ATOM     14  C   UNL d   1     130.673 125.001 152.961  0.00  0.00     0.006 C 
ATOM     15  C   UNL d   1     132.694 125.942 155.845  0.00  0.00    -0.035 C 
ATOM     16  C   UNL d   1     129.350 125.244 155.109  0.00  0.00     0.004 C 
ATOM     17  C   UNL d   1     132.060 123.638 155.186  0.00  0.00     0.051 C 
ATOM     18  C   UNL d   1     130.843 123.481 152.980  0.00  0.00     0.030 C 
ATOM     19  C   UNL d   1     132.080 123.063 153.771  0.00  0.00     0.115 C 
ENDROOT
BRANCH   5  20
ATOM     20  C   UNL d   1     128.699 132.456 155.249  0.00  0.00     0.000 C 
ATOM     21  C   UNL d   1     128.256 133.148 153.954  0.00  0.00     0.000 C 
BRANCH  20  22
ATOM     22  C   UNL d   1     129.045 133.505 156.346  0.00  0.00     0.000 C 
BRANCH  22  23
ATOM     23  C   UNL d   1     128.156 133.554 157.597  0.00  0.00     0.000 C 
BRANCH  23  24
ATOM     24  C   UNL d   1     127.100 132.449 157.724  0.00  0.00     0.000 C 
BRANCH  24  25
ATOM     25  C   UNL d   1     127.124 131.661 159.046  0.00  0.00     0.000 C 
ATOM     26  C   UNL d   1     128.471 130.968 159.273  0.00  0.00     0.000 C 
ATOM     27  C   UNL d   1     126.818 132.594 160.220  0.00  0.00     0.000 C 
ENDBRANCH  24  25
ENDBRANCH  23  24
ENDBRANCH  22  23
ENDBRANCH  20  22
ENDBRANCH   5  20
BRANCH  19  28
ATOM     28  O   UNL d   1     132.130 121.640 153.854  0.00  0.00    -0.385 OA
ATOM     29  H   UNL d   1     133.069 121.382 153.886  0.00  0.00     0.210 HD
ENDBRANCH  19  28
TORSDOF 6
ENDMDL
MODEL 4
REMARK VINA RESULT:    -8.126     40.698     42.689
REMARK INTER + INTRA:         -11.475
REMARK INTER:                  -9.854
REMARK INTRA:                  -1.621
REMARK UNBOUND:                -0.737
REMARK  6 active torsions:
REMARK  status: ('A' for Active; 'I' for Inactive)
REMARK    1  A    between atoms: O_1  and  C_22 
REMARK    2  A    between atoms: C_6  and  C_13 
REMARK    3  A    between atoms: C_13  and  C_21 
REMARK    4  A    between atoms: C_21  and  C_24 
REMARK    5  A    between atoms: C_24  and  C_25 
REMARK    6  A    between atoms: C_25  and  C_26 
ROOT
ATOM      1  C   UNL d   1     124.979 138.989 199.823  0.00  0.00     0.000 C 
ATOM      2  C   UNL d   1     125.356 139.858 198.596  0.00  0.00     0.000 C 
ATOM      3  C   UNL d   1     126.459 140.868 198.917  0.00  0.00     0.005 C 
ATOM      4  C   UNL d   1     127.742 140.120 199.378  0.00  0.00     0.004 C 
ATOM      5  C   UNL d   1     123.753 138.197 199.267  0.00  0.00     0.000 C 
ATOM      6  C   UNL d   1     126.227 138.128 200.099  0.00  0.00     0.000 C 
ATOM      7  C   UNL d   1     128.865 141.138 199.831  0.00  0.00     0.015 C 
ATOM      8  C   UNL d   1     124.023 140.387 198.102  0.00  0.00     0.000 C 
ATOM      9  C   UNL d   1     127.462 138.989 200.411  0.00  0.00     0.000 C 
ATOM     10  C   UNL d   1     123.076 139.198 198.284  0.00  0.00     0.000 C 
ATOM     11  C   UNL d   1     126.774 141.774 197.718  0.00  0.00     0.025 C 
ATOM     12  C   UNL d   1     124.597 139.849 201.055  0.00  0.00     0.000 C 
ATOM     13  C   UNL d   1     128.947 142.323 198.858  0.00  0.00    -0.047 C 
ATOM     14  C   UNL d   1     130.232 140.394 199.829  0.00  0.00     0.006 C 
ATOM     15  C   UNL d   1     128.024 142.573 197.915  0.00  0.00    -0.035 C 
ATOM     16  C   UNL d   1     128.582 141.692 201.250  0.00  0.00     0.004 C 
ATOM     17  C   UNL d   1     130.157 143.227 198.994  0.00  0.00     0.051 C 
ATOM     18  C   UNL d   1     131.444 141.309 200.012  0.00  0.00     0.030 C 
ATOM     19  C   UNL d   1     131.461 142.432 198.978  0.00  0.00     0.115 C 
ENDROOT
BRANCH   5  20
ATOM     20  C   UNL d   1     122.713 137.566 200.256  0.00  0.00     0.000 C 
ATOM     21  C   UNL d   1     123.003 136.093 200.566  0.00  0.00     0.000 C 
BRANCH  20  22
ATOM     22  C   UNL d   1     121.279 137.737 199.675  0.00  0.00     0.000 C 
BRANCH  22  23
ATOM     23  C   UNL d   1     120.246 138.492 200.524  0.00  0.00     0.000 C 
BRANCH  23  24
ATOM     24  C   UNL d   1     120.804 139.377 201.645  0.00  0.00     0.000 C 
BRANCH  24  25
ATOM     25  C   UNL d   1     121.056 140.847 201.263  0.00  0.00     0.000 C 
ATOM     26  C   UNL d   1     120.268 141.256 200.015  0.00  0.00     0.000 C 
ATOM     27  C   UNL d   1     120.686 141.765 202.431  0.00  0.00     0.000 C 
ENDBRANCH  24  25
ENDBRANCH  23  24
ENDBRANCH  22  23
ENDBRANCH  20  22
ENDBRANCH   5  20
BRANCH  19  28
ATOM     28  O   UNL d   1     132.543 143.318 199.260  0.00  0.00    -0.385 OA
ATOM     29  H   UNL d   1     132.179 144.075 199.754  0.00  0.00     0.210 HD
ENDBRANCH  19  28
TORSDOF 6
ENDMDL
MODEL 5
REMARK VINA RESULT:    -8.097     38.055     40.802
REMARK INTER + INTRA:         -11.437
REMARK INTER:                 -10.130
REMARK INTRA:                  -1.307
REMARK UNBOUND:                -0.737
REMARK  6 active torsions:
REMARK  status: ('A' for Active; 'I' for Inactive)
REMARK    1  A    between atoms: O_1  and  C_22 
REMARK    2  A    between atoms: C_6  and  C_13 
REMARK    3  A    between atoms: C_13  and  C_21 
REMARK    4  A    between atoms: C_21  and  C_24 
REMARK    5  A    between atoms: C_24  and  C_25 
REMARK    6  A    between atoms: C_25  and  C_26 
ROOT
ATOM      1  C   UNL d   1     125.705 141.146 198.408  0.00  0.00     0.000 C 
ATOM      2  C   UNL d   1     124.916 140.919 197.093  0.00  0.00     0.000 C 
ATOM      3  C   UNL d   1     124.410 139.482 196.960  0.00  0.00     0.005 C 
ATOM      4  C   UNL d   1     123.459 139.146 198.145  0.00  0.00     0.004 C 
ATOM      5  C   UNL d   1     126.229 142.602 198.198  0.00  0.00     0.000 C 
ATOM      6  C   UNL d   1     124.658 140.998 199.529  0.00  0.00     0.000 C 
ATOM      7  C   UNL d   1     123.010 137.629 198.104  0.00  0.00     0.015 C 
ATOM      8  C   UNL d   1     125.843 141.453 196.017  0.00  0.00     0.000 C 
ATOM      9  C   UNL d   1     124.007 139.604 199.528  0.00  0.00     0.000 C 
ATOM     10  C   UNL d   1     126.458 142.699 196.659  0.00  0.00     0.000 C 
ATOM     11  C   UNL d   1     123.694 139.246 195.622  0.00  0.00     0.025 C 
ATOM     12  C   UNL d   1     126.867 140.135 198.576  0.00  0.00     0.000 C 
ATOM     13  C   UNL d   1     122.666 137.204 196.670  0.00  0.00    -0.047 C 
ATOM     14  C   UNL d   1     121.741 137.470 198.991  0.00  0.00     0.006 C 
ATOM     15  C   UNL d   1     122.956 137.944 195.588  0.00  0.00    -0.035 C 
ATOM     16  C   UNL d   1     124.128 136.698 198.634  0.00  0.00     0.004 C 
ATOM     17  C   UNL d   1     121.949 135.877 196.512  0.00  0.00     0.051 C 
ATOM     18  C   UNL d   1     121.050 136.112 198.858  0.00  0.00     0.030 C 
ATOM     19  C   UNL d   1     120.713 135.792 197.404  0.00  0.00     0.115 C 
ENDROOT
BRANCH   5  20
ATOM     20  C   UNL d   1     127.477 143.110 198.999  0.00  0.00     0.000 C 
ATOM     21  C   UNL d   1     127.097 143.951 200.223  0.00  0.00     0.000 C 
BRANCH  20  22
ATOM     22  C   UNL d   1     128.412 143.910 198.046  0.00  0.00     0.000 C 
BRANCH  22  23
ATOM     23  C   UNL d   1     129.904 143.543 198.030  0.00  0.00     0.000 C 
BRANCH  23  24
ATOM     24  C   UNL d   1     130.278 142.191 198.650  0.00  0.00     0.000 C 
BRANCH  24  25
ATOM     25  C   UNL d   1     131.255 142.257 199.837  0.00  0.00     0.000 C 
ATOM     26  C   UNL d   1     132.361 143.292 199.609  0.00  0.00     0.000 C 
ATOM     27  C   UNL d   1     130.497 142.585 201.126  0.00  0.00     0.000 C 
ENDBRANCH  24  25
ENDBRANCH  23  24
ENDBRANCH  22  23
ENDBRANCH  20  22
ENDBRANCH   5  20
BRANCH  19  28
ATOM     28  O   UNL d   1     120.177 134.473 197.322  0.00  0.00    -0.385 OA
ATOM     29  H   UNL d   1     120.537 134.061 196.515  0.00  0.00     0.210 HD
ENDBRANCH  19  28
TORSDOF 6
ENDMDL
MODEL 6
REMARK VINA RESULT:    -7.766      5.313      7.505
REMARK INTER + INTRA:         -10.999
REMARK INTER:                 -10.776
REMARK INTRA:                  -0.223
REMARK UNBOUND:                -0.737
REMARK  6 active torsions:
REMARK  status: ('A' for Active; 'I' for Inactive)
REMARK    1  A    between atoms: O_1  and  C_22 
REMARK    2  A    between atoms: C_6  and  C_13 
REMARK    3  A    between atoms: C_13  and  C_21 
REMARK    4  A    between atoms: C_21  and  C_24 
REMARK    5  A    between atoms: C_24  and  C_25 
REMARK    6  A    between atoms: C_25  and  C_26 
ROOT
ATOM      1  C   UNL d   1     129.996 130.020 155.215  0.00  0.00     0.000 C 
ATOM      2  C   UNL d   1     131.250 129.133 155.429  0.00  0.00     0.000 C 
ATOM      3  C   UNL d   1     130.891 127.659 155.622  0.00  0.00     0.005 C 
ATOM      4  C   UNL d   1     130.148 127.128 154.363  0.00  0.00     0.004 C 
ATOM      5  C   UNL d   1     130.631 131.447 155.220  0.00  0.00     0.000 C 
ATOM      6  C   UNL d   1     129.426 129.578 153.853  0.00  0.00     0.000 C 
ATOM      7  C   UNL d   1     129.658 125.639 154.575  0.00  0.00     0.015 C 
ATOM      8  C   UNL d   1     132.005 129.837 156.541  0.00  0.00     0.000 C 
ATOM      9  C   UNL d   1     129.038 128.090 153.848  0.00  0.00     0.000 C 
ATOM     10  C   UNL d   1     131.825 131.321 156.214  0.00  0.00     0.000 C 
ATOM     11  C   UNL d   1     132.131 126.800 155.908  0.00  0.00     0.025 C 
ATOM     12  C   UNL d   1     128.956 129.849 156.350  0.00  0.00     0.000 C 
ATOM     13  C   UNL d   1     130.747 124.802 155.261  0.00  0.00    -0.047 C 
ATOM     14  C   UNL d   1     129.356 125.019 153.179  0.00  0.00     0.006 C 
ATOM     15  C   UNL d   1     131.845 125.333 155.824  0.00  0.00    -0.035 C 
ATOM     16  C   UNL d   1     128.381 125.587 155.449  0.00  0.00     0.004 C 
ATOM     17  C   UNL d   1     130.540 123.300 155.271  0.00  0.00     0.051 C 
ATOM     18  C   UNL d   1     129.105 123.510 153.206  0.00  0.00     0.030 C 
ATOM     19  C   UNL d   1     130.256 122.760 153.871  0.00  0.00     0.115 C 
ENDROOT
BRANCH   5  20
ATOM     20  C   UNL d   1     129.744 132.699 155.540  0.00  0.00     0.000 C 
ATOM     21  C   UNL d   1     129.639 132.986 157.042  0.00  0.00     0.000 C 
BRANCH  20  22
ATOM     22  C   UNL d   1     128.333 132.506 154.913  0.00  0.00     0.000 C 
BRANCH  22  23
ATOM     23  C   UNL d   1     128.039 133.202 153.576  0.00  0.00     0.000 C 
BRANCH  23  24
ATOM     24  C   UNL d   1     129.105 133.051 152.483  0.00  0.00     0.000 C 
BRANCH  24  25
ATOM     25  C   UNL d   1     129.074 134.122 151.378  0.00  0.00     0.000 C 
ATOM     26  C   UNL d   1     129.266 133.513 149.986  0.00  0.00     0.000 C 
ATOM     27  C   UNL d   1     127.751 134.892 151.428  0.00  0.00     0.000 C 
ENDBRANCH  24  25
ENDBRANCH  23  24
ENDBRANCH  22  23
ENDBRANCH  20  22
ENDBRANCH   5  20
BRANCH  19  28
ATOM     28  O   UNL d   1     129.923 121.376 153.971  0.00  0.00    -0.385 OA
ATOM     29  H   UNL d   1     129.453 121.128 153.154  0.00  0.00     0.210 HD
ENDBRANCH  19  28
TORSDOF 6
ENDMDL
MODEL 7
REMARK VINA RESULT:    -7.617     32.417     36.974
REMARK INTER + INTRA:         -10.804
REMARK INTER:                  -9.383
REMARK INTRA:                  -1.421
REMARK UNBOUND:                -0.737
REMARK  6 active torsions:
REMARK  status: ('A' for Active; 'I' for Inactive)
REMARK    1  A    between atoms: O_1  and  C_22 
REMARK    2  A    between atoms: C_6  and  C_13 
REMARK    3  A    between atoms: C_13  and  C_21 
REMARK    4  A    between atoms: C_21  and  C_24 
REMARK    5  A    between atoms: C_24  and  C_25 
REMARK    6  A    between atoms: C_25  and  C_26 
ROOT
ATOM      1  C   UNL d   1     106.072 146.485 184.989  0.00  0.00     0.000 C 
ATOM      2  C   UNL d   1     106.741 147.861 184.743  0.00  0.00     0.000 C 
ATOM      3  C   UNL d   1     107.710 147.831 183.559  0.00  0.00     0.005 C 
ATOM      4  C   UNL d   1     106.945 147.439 182.262  0.00  0.00     0.004 C 
ATOM      5  C   UNL d   1     105.296 146.761 186.317  0.00  0.00     0.000 C 
ATOM      6  C   UNL d   1     105.173 146.255 183.759  0.00  0.00     0.000 C 
ATOM      7  C   UNL d   1     107.938 147.284 181.040  0.00  0.00     0.015 C 
ATOM      8  C   UNL d   1     107.288 148.248 186.104  0.00  0.00     0.000 C 
ATOM      9  C   UNL d   1     105.984 146.230 182.452  0.00  0.00     0.000 C 
ATOM     10  C   UNL d   1     106.200 147.780 187.074  0.00  0.00     0.000 C 
ATOM     11  C   UNL d   1     108.424 149.177 183.368  0.00  0.00     0.025 C 
ATOM     12  C   UNL d   1     107.111 145.349 185.157  0.00  0.00     0.000 C 
ATOM     13  C   UNL d   1     108.974 148.416 181.035  0.00  0.00    -0.047 C 
ATOM     14  C   UNL d   1     107.109 147.357 179.724  0.00  0.00     0.006 C 
ATOM     15  C   UNL d   1     109.157 149.258 182.066  0.00  0.00    -0.035 C 
ATOM     16  C   UNL d   1     108.692 145.933 181.098  0.00  0.00     0.004 C 
ATOM     17  C   UNL d   1     109.805 148.567 179.775  0.00  0.00     0.051 C 
ATOM     18  C   UNL d   1     107.958 147.464 178.455  0.00  0.00     0.030 C 
ATOM     19  C   UNL d   1     108.929 148.640 178.526  0.00  0.00     0.115 C 
ENDROOT
BRANCH   5  20
ATOM     20  C   UNL d   1     104.874 145.567 187.241  0.00  0.00     0.000 C 
ATOM     21  C   UNL d   1     103.352 145.425 187.373  0.00  0.00     0.000 C 
BRANCH  20  22
ATOM     22  C   UNL d   1     105.537 145.737 188.639  0.00  0.00     0.000 C 
BRANCH  22  23
ATOM     23  C   UNL d   1     106.267 144.526 189.238  0.00  0.00     0.000 C 
BRANCH  23  24
ATOM     24  C   UNL d   1     107.387 143.918 188.385  0.00  0.00     0.000 C 
BRANCH  24  25
ATOM     25  C   UNL d   1     108.818 144.301 188.803  0.00  0.00     0.000 C 
ATOM     26  C   UNL d   1     109.492 145.209 187.769  0.00  0.00     0.000 C 
ATOM     27  C   UNL d   1     108.800 144.996 190.167  0.00  0.00     0.000 C 
ENDBRANCH  24  25
ENDBRANCH  23  24
ENDBRANCH  22  23
ENDBRANCH  20  22
ENDBRANCH   5  20
BRANCH  19  28
ATOM     28  O   UNL d   1     109.770 148.627 177.374  0.00  0.00    -0.385 OA
ATOM     29  H   UNL d   1     109.203 148.776 176.596  0.00  0.00     0.210 HD
ENDBRANCH  19  28
TORSDOF 6
ENDMDL
MODEL 8
REMARK VINA RESULT:    -7.540     33.253     37.305
REMARK INTER + INTRA:         -10.701
REMARK INTER:                  -9.650
REMARK INTRA:                  -1.051
REMARK UNBOUND:                -0.737
REMARK  6 active torsions:
REMARK  status: ('A' for Active; 'I' for Inactive)
REMARK    1  A    between atoms: O_1  and  C_22 
REMARK    2  A    between atoms: C_6  and  C_13 
REMARK    3  A    between atoms: C_13  and  C_21 
REMARK    4  A    between atoms: C_21  and  C_24 
REMARK    5  A    between atoms: C_24  and  C_25 
REMARK    6  A    between atoms: C_25  and  C_26 
ROOT
ATOM      1  C   UNL d   1     106.592 146.952 184.157  0.00  0.00     0.000 C 
ATOM      2  C   UNL d   1     105.237 147.171 183.437  0.00  0.00     0.000 C 
ATOM      3  C   UNL d   1     104.045 146.784 184.314  0.00  0.00     0.005 C 
ATOM      4  C   UNL d   1     104.038 147.649 185.607  0.00  0.00     0.004 C 
ATOM      5  C   UNL d   1     107.600 147.256 183.003  0.00  0.00     0.000 C 
ATOM      6  C   UNL d   1     106.604 147.981 185.304  0.00  0.00     0.000 C 
ATOM      7  C   UNL d   1     102.886 147.194 186.592  0.00  0.00     0.015 C 
ATOM      8  C   UNL d   1     105.411 146.456 182.110  0.00  0.00     0.000 C 
ATOM      9  C   UNL d   1     105.436 147.765 186.282  0.00  0.00     0.000 C 
ATOM     10  C   UNL d   1     106.858 146.769 181.721  0.00  0.00     0.000 C 
ATOM     11  C   UNL d   1     102.711 146.933 183.568  0.00  0.00     0.025 C 
ATOM     12  C   UNL d   1     106.746 145.504 184.689  0.00  0.00     0.000 C 
ATOM     13  C   UNL d   1     101.589 146.918 185.818  0.00  0.00    -0.047 C 
ATOM     14  C   UNL d   1     102.628 148.344 187.608  0.00  0.00     0.006 C 
ATOM     15  C   UNL d   1     101.529 146.830 184.480  0.00  0.00    -0.035 C 
ATOM     16  C   UNL d   1     103.279 145.908 187.359  0.00  0.00     0.004 C 
ATOM     17  C   UNL d   1     100.329 146.755 186.647  0.00  0.00     0.051 C 
ATOM     18  C   UNL d   1     101.379 148.149 188.470  0.00  0.00     0.030 C 
ATOM     19  C   UNL d   1     100.135 147.920 187.615  0.00  0.00     0.115 C 
ENDROOT
BRANCH   5  20
ATOM     20  C   UNL d   1     109.062 146.695 183.070  0.00  0.00     0.000 C 
ATOM     21  C   UNL d   1     109.986 147.545 183.951  0.00  0.00     0.000 C 
BRANCH  20  22
ATOM     22  C   UNL d   1     109.634 146.569 181.629  0.00  0.00     0.000 C 
BRANCH  22  23
ATOM     23  C   UNL d   1     110.292 147.810 181.006  0.00  0.00     0.000 C 
BRANCH  23  24
ATOM     24  C   UNL d   1     109.488 148.529 179.916  0.00  0.00     0.000 C 
BRANCH  24  25
ATOM     25  C   UNL d   1     109.462 147.829 178.545  0.00  0.00     0.000 C 
ATOM     26  C   UNL d   1     108.115 147.152 178.276  0.00  0.00     0.000 C 
ATOM     27  C   UNL d   1     109.766 148.837 177.433  0.00  0.00     0.000 C 
ENDBRANCH  24  25
ENDBRANCH  23  24
ENDBRANCH  22  23
ENDBRANCH  20  22
ENDBRANCH   5  20
BRANCH  19  28
ATOM     28  O   UNL d   1      99.025 147.632 188.464  0.00  0.00    -0.385 OA
ATOM     29  H   UNL d   1      98.877 148.414 189.026  0.00  0.00     0.210 HD
ENDBRANCH  19  28
TORSDOF 6
ENDMDL
MODEL 9
REMARK VINA RESULT:    -7.441     40.174     42.319
REMARK INTER + INTRA:         -10.570
REMARK INTER:                  -9.839
REMARK INTRA:                  -0.731
REMARK UNBOUND:                -0.737
REMARK  6 active torsions:
REMARK  status: ('A' for Active; 'I' for Inactive)
REMARK    1  A    between atoms: O_1  and  C_22 
REMARK    2  A    between atoms: C_6  and  C_13 
REMARK    3  A    between atoms: C_13  and  C_21 
REMARK    4  A    between atoms: C_21  and  C_24 
REMARK    5  A    between atoms: C_24  and  C_25 
REMARK    6  A    between atoms: C_25  and  C_26 
ROOT
ATOM      1  C   UNL d   1     125.630 140.627 198.801  0.00  0.00     0.000 C 
ATOM      2  C   UNL d   1     126.325 139.252 198.978  0.00  0.00     0.000 C 
ATOM      3  C   UNL d   1     125.372 138.186 199.522  0.00  0.00     0.005 C 
ATOM      4  C   UNL d   1     124.182 137.991 198.539  0.00  0.00     0.004 C 
ATOM      5  C   UNL d   1     126.843 141.530 198.411  0.00  0.00     0.000 C 
ATOM      6  C   UNL d   1     124.604 140.411 197.672  0.00  0.00     0.000 C 
ATOM      7  C   UNL d   1     123.116 136.981 199.127  0.00  0.00     0.015 C 
ATOM      8  C   UNL d   1     127.570 139.576 199.783  0.00  0.00     0.000 C 
ATOM      9  C   UNL d   1     123.571 139.330 198.033  0.00  0.00     0.000 C 
ATOM     10  C   UNL d   1     128.038 140.910 199.197  0.00  0.00     0.000 C 
ATOM     11  C   UNL d   1     126.085 136.849 199.765  0.00  0.00     0.025 C 
ATOM     12  C   UNL d   1     124.948 141.111 200.105  0.00  0.00     0.000 C 
ATOM     13  C   UNL d   1     123.811 135.776 199.777  0.00  0.00    -0.047 C 
ATOM     14  C   UNL d   1     122.224 136.473 197.957  0.00  0.00     0.006 C 
ATOM     15  C   UNL d   1     125.129 135.728 200.028  0.00  0.00    -0.035 C 
ATOM     16  C   UNL d   1     122.225 137.663 200.195  0.00  0.00     0.004 C 
ATOM     17  C   UNL d   1     122.928 134.593 200.124  0.00  0.00     0.051 C 
ATOM     18  C   UNL d   1     121.305 135.309 198.329  0.00  0.00     0.030 C 
ATOM     19  C   UNL d   1     122.088 134.144 198.930  0.00  0.00     0.115 C 
ENDROOT
BRANCH   5  20
ATOM     20  C   UNL d   1     126.763 143.082 198.615  0.00  0.00     0.000 C 
ATOM     21  C   UNL d   1     127.014 143.866 197.321  0.00  0.00     0.000 C 
BRANCH  20  22
ATOM     22  C   UNL d   1     127.766 143.510 199.725  0.00  0.00     0.000 C 
BRANCH  22  23
ATOM     23  C   UNL d   1     127.237 143.634 201.162  0.00  0.00     0.000 C 
BRANCH  23  24
ATOM     24  C   UNL d   1     127.758 144.824 201.977  0.00  0.00     0.000 C 
BRANCH  24  25
ATOM     25  C   UNL d   1     128.214 144.494 203.410  0.00  0.00     0.000 C 
ATOM     26  C   UNL d   1     129.676 144.040 203.454  0.00  0.00     0.000 C 
ATOM     27  C   UNL d   1     128.023 145.712 204.317  0.00  0.00     0.000 C 
ENDBRANCH  24  25
ENDBRANCH  23  24
ENDBRANCH  22  23
ENDBRANCH  20  22
ENDBRANCH   5  20
BRANCH  19  28
ATOM     28  O   UNL d   1     121.177 133.135 199.363  0.00  0.00    -0.385 OA
ATOM     29  H   UNL d   1     120.719 132.797 198.572  0.00  0.00     0.210 HD
ENDBRANCH  19  28
TORSDOF 6
ENDMDL
MODEL 10
REMARK VINA RESULT:    -7.281     34.740     39.200
REMARK INTER + INTRA:         -10.359
REMARK INTER:                  -9.259
REMARK INTRA:                  -1.100
REMARK UNBOUND:                -0.737
REMARK  6 active torsions:
REMARK  status: ('A' for Active; 'I' for Inactive)
REMARK    1  A    between atoms: O_1  and  C_22 
REMARK    2  A    between atoms: C_6  and  C_13 
REMARK    3  A    between atoms: C_13  and  C_21 
REMARK    4  A    between atoms: C_21  and  C_24 
REMARK    5  A    between atoms: C_24  and  C_25 
REMARK    6  A    between atoms: C_25  and  C_26 
ROOT
ATOM      1  C   UNL d   1     125.729 139.227 195.751  0.00  0.00     0.000 C 
ATOM      2  C   UNL d   1     126.539 140.539 195.587  0.00  0.00     0.000 C 
ATOM      3  C   UNL d   1     126.328 141.501 196.758  0.00  0.00     0.005 C 
ATOM      4  C   UNL d   1     126.784 140.826 198.083  0.00  0.00     0.004 C 
ATOM      5  C   UNL d   1     125.994 138.536 194.375  0.00  0.00     0.000 C 
ATOM      6  C   UNL d   1     126.368 138.514 196.959  0.00  0.00     0.000 C 
ATOM      7  C   UNL d   1     126.470 141.749 199.330  0.00  0.00     0.015 C 
ATOM      8  C   UNL d   1     126.177 141.018 194.194  0.00  0.00     0.000 C 
ATOM      9  C   UNL d   1     126.279 139.363 198.239  0.00  0.00     0.000 C 
ATOM     10  C   UNL d   1     126.114 139.726 193.375  0.00  0.00     0.000 C 
ATOM     11  C   UNL d   1     127.074 142.827 196.552  0.00  0.00     0.025 C 
ATOM     12  C   UNL d   1     124.220 139.494 195.979  0.00  0.00     0.000 C 
ATOM     13  C   UNL d   1     126.823 143.212 199.025  0.00  0.00    -0.047 C 
ATOM     14  C   UNL d   1     127.337 141.265 200.528  0.00  0.00     0.006 C 
ATOM     15  C   UNL d   1     127.110 143.663 197.793  0.00  0.00    -0.035 C 
ATOM     16  C   UNL d   1     124.972 141.679 199.717  0.00  0.00     0.004 C 
ATOM     17  C   UNL d   1     126.850 144.161 200.207  0.00  0.00     0.051 C 
ATOM     18  C   UNL d   1     127.323 142.208 201.733  0.00  0.00     0.030 C 
ATOM     19  C   UNL d   1     127.723 143.627 201.340  0.00  0.00     0.115 C 
ENDROOT
BRANCH   5  20
ATOM     20  C   UNL d   1     125.009 137.436 193.847  0.00  0.00     0.000 C 
ATOM     21  C   UNL d   1     125.582 136.018 193.964  0.00  0.00     0.000 C 
BRANCH  20  22
ATOM     22  C   UNL d   1     124.619 137.756 192.375  0.00  0.00     0.000 C 
BRANCH  22  23
ATOM     23  C   UNL d   1     123.230 137.317 191.889  0.00  0.00     0.000 C 
BRANCH  23  24
ATOM     24  C   UNL d   1     122.157 138.411 191.819  0.00  0.00     0.000 C 
BRANCH  24  25
ATOM     25  C   UNL d   1     120.934 138.195 192.727  0.00  0.00     0.000 C 
ATOM     26  C   UNL d   1     121.341 137.898 194.174  0.00  0.00     0.000 C 
ATOM     27  C   UNL d   1     120.025 139.426 192.688  0.00  0.00     0.000 C 
ENDBRANCH  24  25
ENDBRANCH  23  24
ENDBRANCH  22  23
ENDBRANCH  20  22
ENDBRANCH   5  20
BRANCH  19  28
ATOM     28  O   UNL d   1     127.585 144.487 202.470  0.00  0.00    -0.385 OA
ATOM     29  H   UNL d   1     127.984 144.032 203.234  0.00  0.00     0.210 HD
ENDBRANCH  19  28
TORSDOF 6
ENDMDL
MODEL 11
REMARK VINA RESULT:    -7.197     17.671     19.674
REMARK INTER + INTRA:         -10.248
REMARK INTER:                  -8.862
REMARK INTRA:                  -1.387
REMARK UNBOUND:                -0.737
REMARK  6 active torsions:
REMARK  status: ('A' for Active; 'I' for Inactive)
REMARK    1  A    between atoms: O_1  and  C_22 
REMARK    2  A    between atoms: C_6  and  C_13 
REMARK    3  A    between atoms: C_13  and  C_21 
REMARK    4  A    between atoms: C_21  and  C_24 
REMARK    5  A    between atoms: C_24  and  C_25 
REMARK    6  A    between atoms: C_25  and  C_26 
ROOT
ATOM      1  C   UNL d   1     127.634 139.973 175.511  0.00  0.00     0.000 C 
ATOM      2  C   UNL d   1     127.905 138.542 174.982  0.00  0.00     0.000 C 
ATOM      3  C   UNL d   1     127.816 137.488 176.087  0.00  0.00     0.005 C 
ATOM      4  C   UNL d   1     126.391 137.498 176.711  0.00  0.00     0.004 C 
ATOM      5  C   UNL d   1     127.953 140.829 174.244  0.00  0.00     0.000 C 
ATOM      6  C   UNL d   1     126.149 139.969 175.924  0.00  0.00     0.000 C 
ATOM      7  C   UNL d   1     126.298 136.502 177.937  0.00  0.00     0.015 C 
ATOM      8  C   UNL d   1     129.214 138.676 174.227  0.00  0.00     0.000 C 
ATOM      9  C   UNL d   1     125.860 138.929 177.019  0.00  0.00     0.000 C 
ATOM     10  C   UNL d   1     129.090 140.035 173.533  0.00  0.00     0.000 C 
ATOM     11  C   UNL d   1     128.159 136.083 175.570  0.00  0.00     0.025 C 
ATOM     12  C   UNL d   1     128.555 140.343 176.701  0.00  0.00     0.000 C 
ATOM     13  C   UNL d   1     127.011 135.181 177.617  0.00  0.00    -0.047 C 
ATOM     14  C   UNL d   1     124.795 136.205 178.214  0.00  0.00     0.006 C 
ATOM     15  C   UNL d   1     127.812 135.009 176.553  0.00  0.00    -0.035 C 
ATOM     16  C   UNL d   1     126.944 137.111 179.206  0.00  0.00     0.004 C 
ATOM     17  C   UNL d   1     126.762 134.030 178.573  0.00  0.00     0.051 C 
ATOM     18  C   UNL d   1     124.555 135.071 179.213  0.00  0.00     0.030 C 
ATOM     19  C   UNL d   1     125.270 133.790 178.793  0.00  0.00     0.115 C 
ENDROOT
BRANCH   5  20
ATOM     20  C   UNL d   1     128.315 142.347 174.393  0.00  0.00     0.000 C 
ATOM     21  C   UNL d   1     127.113 143.271 174.166  0.00  0.00     0.000 C 
BRANCH  20  22
ATOM     22  C   UNL d   1     129.476 142.699 173.418  0.00  0.00     0.000 C 
BRANCH  22  23
ATOM     23  C   UNL d   1     130.738 143.346 174.008  0.00  0.00     0.000 C 
BRANCH  23  24
ATOM     24  C   UNL d   1     131.499 142.521 175.052  0.00  0.00     0.000 C 
BRANCH  24  25
ATOM     25  C   UNL d   1     131.184 142.860 176.520  0.00  0.00     0.000 C 
ATOM     26  C   UNL d   1     132.043 142.046 177.492  0.00  0.00     0.000 C 
ATOM     27  C   UNL d   1     131.395 144.356 176.772  0.00  0.00     0.000 C 
ENDBRANCH  24  25
ENDBRANCH  23  24
ENDBRANCH  22  23
ENDBRANCH  20  22
ENDBRANCH   5  20
BRANCH  19  28
ATOM     28  O   UNL d   1     125.108 132.803 179.810  0.00  0.00    -0.385 OA
ATOM     29  H   UNL d   1     125.031 131.938 179.368  0.00  0.00     0.210 HD
ENDBRANCH  19  28
TORSDOF 6
ENDMDL
MODEL 12
REMARK VINA RESULT:    -7.191     65.599     70.318
REMARK INTER + INTRA:         -10.240
REMARK INTER:                  -8.635
REMARK INTRA:                  -1.604
REMARK UNBOUND:                -0.737
REMARK  6 active torsions:
REMARK  status: ('A' for Active; 'I' for Inactive)
REMARK    1  A    between atoms: O_1  and  C_22 
REMARK    2  A    between atoms: C_6  and  C_13 
REMARK    3  A    between atoms: C_13  and  C_21 
REMARK    4  A    between atoms: C_21  and  C_24 
REMARK    5  A    between atoms: C_24  and  C_25 
REMARK    6  A    between atoms: C_25  and  C_26 
ROOT
ATOM      1  C   UNL d   1     113.912 142.005 225.071  0.00  0.00     0.000 C 
ATOM      2  C   UNL d   1     112.875 141.534 226.122  0.00  0.00     0.000 C 
ATOM      3  C   UNL d   1     112.522 142.635 227.124  0.00  0.00     0.005 C 
ATOM      4  C   UNL d   1     111.914 143.855 226.374  0.00  0.00     0.004 C 
ATOM      5  C   UNL d   1     114.202 140.670 224.314  0.00  0.00     0.000 C 
ATOM      6  C   UNL d   1     113.175 143.069 224.234  0.00  0.00     0.000 C 
ATOM      7  C   UNL d   1     111.647 145.059 227.365  0.00  0.00     0.015 C 
ATOM      8  C   UNL d   1     113.463 140.242 226.658  0.00  0.00     0.000 C 
ATOM      9  C   UNL d   1     112.707 144.255 225.096  0.00  0.00     0.000 C 
ATOM     10  C   UNL d   1     114.059 139.577 225.416  0.00  0.00     0.000 C 
ATOM     11  C   UNL d   1     111.552 142.139 228.205  0.00  0.00     0.025 C 
ATOM     12  C   UNL d   1     115.191 142.583 225.728  0.00  0.00     0.000 C 
ATOM     13  C   UNL d   1     111.035 144.554 228.679  0.00  0.00    -0.047 C 
ATOM     14  C   UNL d   1     110.642 146.036 226.689  0.00  0.00     0.006 C 
ATOM     15  C   UNL d   1     110.982 143.256 229.021  0.00  0.00    -0.035 C 
ATOM     16  C   UNL d   1     112.957 145.815 227.696  0.00  0.00     0.004 C 
ATOM     17  C   UNL d   1     110.460 145.607 229.606  0.00  0.00     0.051 C 
ATOM     18  C   UNL d   1     110.101 147.123 227.621  0.00  0.00     0.030 C 
ATOM     19  C   UNL d   1     109.479 146.525 228.880  0.00  0.00     0.115 C 
ENDROOT
BRANCH   5  20
ATOM     20  C   UNL d   1     115.533 140.501 223.503  0.00  0.00     0.000 C 
ATOM     21  C   UNL d   1     115.313 140.519 221.986  0.00  0.00     0.000 C 
BRANCH  20  22
ATOM     22  C   UNL d   1     116.243 139.188 223.944  0.00  0.00     0.000 C 
BRANCH  22  23
ATOM     23  C   UNL d   1     117.664 139.298 224.517  0.00  0.00     0.000 C 
BRANCH  23  24
ATOM     24  C   UNL d   1     117.969 140.556 225.340  0.00  0.00     0.000 C 
BRANCH  24  25
ATOM     25  C   UNL d   1     118.282 140.312 226.827  0.00  0.00     0.000 C 
ATOM     26  C   UNL d   1     118.763 141.587 227.527  0.00  0.00     0.000 C 
ATOM     27  C   UNL d   1     117.045 139.765 227.543  0.00  0.00     0.000 C 
ENDBRANCH  24  25
ENDBRANCH  23  24
ENDBRANCH  22  23
ENDBRANCH  20  22
ENDBRANCH   5  20
BRANCH  19  28
ATOM     28  O   UNL d   1     109.095 147.577 229.763  0.00  0.00    -0.385 OA
ATOM     29  H   UNL d   1     108.550 148.203 229.252  0.00  0.00     0.210 HD
ENDBRANCH  19  28
TORSDOF 6
ENDMDL
MODEL 13
REMARK VINA RESULT:    -7.004      5.599      7.086
REMARK INTER + INTRA:          -9.993
REMARK INTER:                 -10.359
REMARK INTRA:                   0.366
REMARK UNBOUND:                -0.737
REMARK  6 active torsions:
REMARK  status: ('A' for Active; 'I' for Inactive)
REMARK    1  A    between atoms: O_1  and  C_22 
REMARK    2  A    between atoms: C_6  and  C_13 
REMARK    3  A    between atoms: C_13  and  C_21 
REMARK    4  A    between atoms: C_21  and  C_24 
REMARK    5  A    between atoms: C_24  and  C_25 
REMARK    6  A    between atoms: C_25  and  C_26 
ROOT
ATOM      1  C   UNL d   1     130.558 126.518 154.671  0.00  0.00     0.000 C 
ATOM      2  C   UNL d   1     129.660 127.770 154.848  0.00  0.00     0.000 C 
ATOM      3  C   UNL d   1     128.783 127.682 156.098  0.00  0.00     0.005 C 
ATOM      4  C   UNL d   1     129.679 127.561 157.364  0.00  0.00     0.004 C 
ATOM      5  C   UNL d   1     131.193 126.798 153.271  0.00  0.00     0.000 C 
ATOM      6  C   UNL d   1     131.552 126.573 155.847  0.00  0.00     0.000 C 
ATOM      7  C   UNL d   1     128.804 127.350 158.664  0.00  0.00     0.015 C 
ATOM      8  C   UNL d   1     128.975 127.918 153.502  0.00  0.00     0.000 C 
ATOM      9  C   UNL d   1     130.835 126.531 157.208  0.00  0.00     0.000 C 
ATOM     10  C   UNL d   1     130.074 127.560 152.499  0.00  0.00     0.000 C 
ATOM     11  C   UNL d   1     127.844 128.890 156.225  0.00  0.00     0.025 C 
ATOM     12  C   UNL d   1     129.739 125.203 154.678  0.00  0.00     0.000 C 
ATOM     13  C   UNL d   1     127.578 128.274 158.649  0.00  0.00    -0.047 C 
ATOM     14  C   UNL d   1     129.677 127.698 159.905  0.00  0.00     0.006 C 
ATOM     15  C   UNL d   1     127.184 128.965 157.566  0.00  0.00    -0.035 C 
ATOM     16  C   UNL d   1     128.309 125.887 158.777  0.00  0.00     0.004 C 
ATOM     17  C   UNL d   1     126.806 128.396 159.949  0.00  0.00     0.051 C 
ATOM     18  C   UNL d   1     128.897 127.775 161.218  0.00  0.00     0.030 C 
ATOM     19  C   UNL d   1     127.722 128.745 161.119  0.00  0.00     0.115 C 
ENDROOT
BRANCH   5  20
ATOM     20  C   UNL d   1     131.776 125.615 152.424  0.00  0.00     0.000 C 
ATOM     21  C   UNL d   1     131.941 124.325 153.237  0.00  0.00     0.000 C 
BRANCH  20  22
ATOM     22  C   UNL d   1     133.131 126.049 151.794  0.00  0.00     0.000 C 
BRANCH  22  23
ATOM     23  C   UNL d   1     133.516 125.447 150.434  0.00  0.00     0.000 C 
BRANCH  23  24
ATOM     24  C   UNL d   1     134.220 126.389 149.450  0.00  0.00     0.000 C 
BRANCH  24  25
ATOM     25  C   UNL d   1     135.756 126.294 149.428  0.00  0.00     0.000 C 
ATOM     26  C   UNL d   1     136.258 125.415 148.279  0.00  0.00     0.000 C 
ATOM     27  C   UNL d   1     136.368 127.692 149.315  0.00  0.00     0.000 C 
ENDBRANCH  24  25
ENDBRANCH  23  24
ENDBRANCH  22  23
ENDBRANCH  20  22
ENDBRANCH   5  20
BRANCH  19  28
ATOM     28  O   UNL d   1     126.964 128.694 162.327  0.00  0.00    -0.385 OA
ATOM     29  H   UNL d   1     127.465 129.181 163.007  0.00  0.00     0.210 HD
ENDBRANCH  19  28
TORSDOF 6
ENDMDL
MODEL 14
REMARK VINA RESULT:    -6.886     36.733     40.465
REMARK INTER + INTRA:          -9.836
REMARK INTER:                  -9.526
REMARK INTRA:                  -0.311
REMARK UNBOUND:                -0.737
REMARK  6 active torsions:
REMARK  status: ('A' for Active; 'I' for Inactive)
REMARK    1  A    between atoms: O_1  and  C_22 
REMARK    2  A    between atoms: C_6  and  C_13 
REMARK    3  A    between atoms: C_13  and  C_21 
REMARK    4  A    between atoms: C_21  and  C_24 
REMARK    5  A    between atoms: C_24  and  C_25 
REMARK    6  A    between atoms: C_25  and  C_26 
ROOT
ATOM      1  C   UNL d   1     125.781 140.949 197.547  0.00  0.00     0.000 C 
ATOM      2  C   UNL d   1     124.927 140.059 198.486  0.00  0.00     0.000 C 
ATOM      3  C   UNL d   1     124.058 139.065 197.713  0.00  0.00     0.005 C 
ATOM      4  C   UNL d   1     124.960 138.125 196.863  0.00  0.00     0.004 C 
ATOM      5  C   UNL d   1     126.413 141.946 198.569  0.00  0.00     0.000 C 
ATOM      6  C   UNL d   1     126.786 139.983 196.890  0.00  0.00     0.000 C 
ATOM      7  C   UNL d   1     124.089 137.162 195.960  0.00  0.00     0.015 C 
ATOM      8  C   UNL d   1     124.237 141.054 199.400  0.00  0.00     0.000 C 
ATOM      9  C   UNL d   1     126.080 138.878 196.086  0.00  0.00     0.000 C 
ATOM     10  C   UNL d   1     125.314 142.108 199.662  0.00  0.00     0.000 C 
ATOM     11  C   UNL d   1     123.161 138.240 198.647  0.00  0.00     0.025 C 
ATOM     12  C   UNL d   1     124.918 141.680 196.488  0.00  0.00     0.000 C 
ATOM     13  C   UNL d   1     122.895 136.610 196.751  0.00  0.00    -0.047 C 
ATOM     14  C   UNL d   1     124.984 135.972 195.508  0.00  0.00     0.006 C 
ATOM     15  C   UNL d   1     122.516 137.085 197.948  0.00  0.00    -0.035 C 
ATOM     16  C   UNL d   1     123.546 137.901 194.711  0.00  0.00     0.004 C 
ATOM     17  C   UNL d   1     122.138 135.458 196.116  0.00  0.00     0.051 C 
ATOM     18  C   UNL d   1     124.217 134.835 194.829  0.00  0.00     0.030 C 
ATOM     19  C   UNL d   1     123.076 134.325 195.705  0.00  0.00     0.115 C 
ENDROOT
BRANCH   5  20
ATOM     20  C   UNL d   1     126.948 143.336 198.079  0.00  0.00     0.000 C 
ATOM     21  C   UNL d   1     126.672 143.591 196.592  0.00  0.00     0.000 C 
BRANCH  20  22
ATOM     22  C   UNL d   1     128.471 143.440 198.384  0.00  0.00     0.000 C 
BRANCH  22  23
ATOM     23  C   UNL d   1     129.084 142.405 199.340  0.00  0.00     0.000 C 
BRANCH  23  24
ATOM     24  C   UNL d   1     129.738 142.959 200.612  0.00  0.00     0.000 C 
BRANCH  24  25
ATOM     25  C   UNL d   1     128.873 142.889 201.883  0.00  0.00     0.000 C 
ATOM     26  C   UNL d   1     127.830 144.010 201.928  0.00  0.00     0.000 C 
ATOM     27  C   UNL d   1     128.174 141.529 201.970  0.00  0.00     0.000 C 
ENDBRANCH  24  25
ENDBRANCH  23  24
ENDBRANCH  22  23
ENDBRANCH  20  22
ENDBRANCH   5  20
BRANCH  19  28
ATOM     28  O   UNL d   1     122.327 133.349 194.983  0.00  0.00    -0.385 OA
ATOM     29  H   UNL d   1     121.409 133.383 195.311  0.00  0.00     0.210 HD
ENDBRANCH  19  28
TORSDOF 6
ENDMDL
MODEL 15
REMARK VINA RESULT:    -6.863     33.437     38.712
REMARK INTER + INTRA:          -9.806
REMARK INTER:                  -8.804
REMARK INTRA:                  -1.002
REMARK UNBOUND:                -0.737
REMARK  6 active torsions:
REMARK  status: ('A' for Active; 'I' for Inactive)
REMARK    1  A    between atoms: O_1  and  C_22 
REMARK    2  A    between atoms: C_6  and  C_13 
REMARK    3  A    between atoms: C_13  and  C_21 
REMARK    4  A    between atoms: C_21  and  C_24 
REMARK    5  A    between atoms: C_24  and  C_25 
REMARK    6  A    between atoms: C_25  and  C_26 
ROOT
ATOM      1  C   UNL d   1     125.566 138.873 195.935  0.00  0.00     0.000 C 
ATOM      2  C   UNL d   1     126.345 140.179 195.636  0.00  0.00     0.000 C 
ATOM      3  C   UNL d   1     126.157 141.230 196.731  0.00  0.00     0.005 C 
ATOM      4  C   UNL d   1     126.673 140.674 198.089  0.00  0.00     0.004 C 
ATOM      5  C   UNL d   1     125.795 138.075 194.612  0.00  0.00     0.000 C 
ATOM      6  C   UNL d   1     126.261 138.271 197.172  0.00  0.00     0.000 C 
ATOM      7  C   UNL d   1     126.387 141.691 199.267  0.00  0.00     0.015 C 
ATOM      8  C   UNL d   1     125.923 140.536 194.222  0.00  0.00     0.000 C 
ATOM      9  C   UNL d   1     126.202 139.220 198.382  0.00  0.00     0.000 C 
ATOM     10  C   UNL d   1     125.856 139.181 193.515  0.00  0.00     0.000 C 
ATOM     11  C   UNL d   1     126.870 142.547 196.391  0.00  0.00     0.025 C 
ATOM     12  C   UNL d   1     124.062 139.133 196.197  0.00  0.00     0.000 C 
ATOM     13  C   UNL d   1     126.700 143.129 198.831  0.00  0.00    -0.047 C 
ATOM     14  C   UNL d   1     127.306 141.320 200.468  0.00  0.00     0.006 C 
ATOM     15  C   UNL d   1     126.934 143.483 197.557  0.00  0.00    -0.035 C 
ATOM     16  C   UNL d   1     124.906 141.629 199.715  0.00  0.00     0.004 C 
ATOM     17  C   UNL d   1     126.752 144.172 199.931  0.00  0.00     0.051 C 
ATOM     18  C   UNL d   1     127.317 142.358 201.592  0.00  0.00     0.030 C 
ATOM     19  C   UNL d   1     127.675 143.747 201.071  0.00  0.00     0.115 C 
ENDROOT
BRANCH   5  20
ATOM     20  C   UNL d   1     124.812 136.921 194.212  0.00  0.00     0.000 C 
ATOM     21  C   UNL d   1     125.455 135.532 194.309  0.00  0.00     0.000 C 
BRANCH  20  22
ATOM     22  C   UNL d   1     124.268 137.179 192.777  0.00  0.00     0.000 C 
BRANCH  22  23
ATOM     23  C   UNL d   1     124.013 135.962 191.876  0.00  0.00     0.000 C 
BRANCH  23  24
ATOM     24  C   UNL d   1     124.851 135.879 190.594  0.00  0.00     0.000 C 
BRANCH  24  25
ATOM     25  C   UNL d   1     126.167 135.088 190.715  0.00  0.00     0.000 C 
ATOM     26  C   UNL d   1     125.920 133.623 191.088  0.00  0.00     0.000 C 
ATOM     27  C   UNL d   1     126.948 135.163 189.401  0.00  0.00     0.000 C 
ENDBRANCH  24  25
ENDBRANCH  23  24
ENDBRANCH  22  23
ENDBRANCH  20  22
ENDBRANCH   5  20
BRANCH  19  28
ATOM     28  O   UNL d   1     127.561 144.694 202.131  0.00  0.00    -0.385 OA
ATOM     29  H   UNL d   1     128.465 144.944 202.399  0.00  0.00     0.210 HD
ENDBRANCH  19  28
TORSDOF 6
ENDMDL
MODEL 16
REMARK VINA RESULT:    -6.855     35.564     39.017
REMARK INTER + INTRA:          -9.796
REMARK INTER:                  -8.247
REMARK INTRA:                  -1.549
REMARK UNBOUND:                -0.737
REMARK  6 active torsions:
REMARK  status: ('A' for Active; 'I' for Inactive)
REMARK    1  A    between atoms: O_1  and  C_22 
REMARK    2  A    between atoms: C_6  and  C_13 
REMARK    3  A    between atoms: C_13  and  C_21 
REMARK    4  A    between atoms: C_21  and  C_24 
REMARK    5  A    between atoms: C_24  and  C_25 
REMARK    6  A    between atoms: C_25  and  C_26 
ROOT
ATOM      1  C   UNL d   1      97.069 149.631 174.187  0.00  0.00     0.000 C 
ATOM      2  C   UNL d   1      97.843 149.734 175.527  0.00  0.00     0.000 C 
ATOM      3  C   UNL d   1      98.581 151.066 175.670  0.00  0.00     0.005 C 
ATOM      4  C   UNL d   1      97.563 152.241 175.622  0.00  0.00     0.004 C 
ATOM      5  C   UNL d   1      96.573 148.151 174.238  0.00  0.00     0.000 C 
ATOM      6  C   UNL d   1      95.950 150.685 174.294  0.00  0.00     0.000 C 
ATOM      7  C   UNL d   1      98.303 153.639 175.648  0.00  0.00     0.015 C 
ATOM      8  C   UNL d   1      98.659 148.455 175.573  0.00  0.00     0.000 C 
ATOM      9  C   UNL d   1      96.514 152.105 174.480  0.00  0.00     0.000 C 
ATOM     10  C   UNL d   1      97.708 147.402 174.999  0.00  0.00     0.000 C 
ATOM     11  C   UNL d   1      99.405 151.129 176.964  0.00  0.00     0.025 C 
ATOM     12  C   UNL d   1      97.981 149.890 172.962  0.00  0.00     0.000 C 
ATOM     13  C   UNL d   1      99.449 153.626 176.671  0.00  0.00    -0.047 C 
ATOM     14  C   UNL d   1      97.274 154.730 176.063  0.00  0.00     0.006 C 
ATOM     15  C   UNL d   1      99.905 152.508 177.259  0.00  0.00    -0.035 C 
ATOM     16  C   UNL d   1      98.893 153.989 174.260  0.00  0.00     0.004 C 
ATOM     17  C   UNL d   1     100.061 154.970 177.017  0.00  0.00     0.051 C 
ATOM     18  C   UNL d   1      97.897 156.094 176.367  0.00  0.00     0.030 C 
ATOM     19  C   UNL d   1      98.997 155.989 177.420  0.00  0.00     0.115 C 
ENDROOT
BRANCH   5  20
ATOM     20  C   UNL d   1      96.180 147.410 172.914  0.00  0.00     0.000 C 
ATOM     21  C   UNL d   1      94.665 147.229 172.759  0.00  0.00     0.000 C 
BRANCH  20  22
ATOM     22  C   UNL d   1      96.909 146.036 172.855  0.00  0.00     0.000 C 
BRANCH  22  23
ATOM     23  C   UNL d   1      97.934 145.815 171.733  0.00  0.00     0.000 C 
BRANCH  23  24
ATOM     24  C   UNL d   1      99.117 144.897 172.066  0.00  0.00     0.000 C 
BRANCH  24  25
ATOM     25  C   UNL d   1     100.376 145.607 172.594  0.00  0.00     0.000 C 
ATOM     26  C   UNL d   1     100.357 147.108 172.287  0.00  0.00     0.000 C 
ATOM     27  C   UNL d   1     100.509 145.389 174.103  0.00  0.00     0.000 C 
ENDBRANCH  24  25
ENDBRANCH  23  24
ENDBRANCH  22  23
ENDBRANCH  20  22
ENDBRANCH   5  20
BRANCH  19  28
ATOM     28  O   UNL d   1      99.618 157.262 177.584  0.00  0.00    -0.385 OA
ATOM     29  H   UNL d   1     100.251 157.375 176.851  0.00  0.00     0.210 HD
ENDBRANCH  19  28
TORSDOF 6
ENDMDL
MODEL 17
REMARK VINA RESULT:    -6.825     64.857     70.591
REMARK INTER + INTRA:          -9.756
REMARK INTER:                  -8.352
REMARK INTRA:                  -1.404
REMARK UNBOUND:                -0.737
REMARK  6 active torsions:
REMARK  status: ('A' for Active; 'I' for Inactive)
REMARK    1  A    between atoms: O_1  and  C_22 
REMARK    2  A    between atoms: C_6  and  C_13 
REMARK    3  A    between atoms: C_13  and  C_21 
REMARK    4  A    between atoms: C_21  and  C_24 
REMARK    5  A    between atoms: C_24  and  C_25 
REMARK    6  A    between atoms: C_25  and  C_26 
ROOT
ATOM      1  C   UNL d   1     115.160 142.119 227.160  0.00  0.00     0.000 C 
ATOM      2  C   UNL d   1     114.523 143.352 226.470  0.00  0.00     0.000 C 
ATOM      3  C   UNL d   1     113.100 143.622 226.961  0.00  0.00     0.005 C 
ATOM      4  C   UNL d   1     113.113 143.893 228.493  0.00  0.00     0.004 C 
ATOM      5  C   UNL d   1     116.498 141.985 226.366  0.00  0.00     0.000 C 
ATOM      6  C   UNL d   1     115.330 142.533 228.635  0.00  0.00     0.000 C 
ATOM      7  C   UNL d   1     111.644 144.059 229.056  0.00  0.00     0.015 C 
ATOM      8  C   UNL d   1     114.731 143.087 224.991  0.00  0.00     0.000 C 
ATOM      9  C   UNL d   1     113.984 142.881 229.293  0.00  0.00     0.000 C 
ATOM     10  C   UNL d   1     116.129 142.468 224.930  0.00  0.00     0.000 C 
ATOM     11  C   UNL d   1     112.450 144.799 226.220  0.00  0.00     0.025 C 
ATOM     12  C   UNL d   1     114.280 140.851 227.023  0.00  0.00     0.000 C 
ATOM     13  C   UNL d   1     110.794 144.918 228.108  0.00  0.00    -0.047 C 
ATOM     14  C   UNL d   1     111.726 144.770 230.438  0.00  0.00     0.006 C 
ATOM     15  C   UNL d   1     111.179 145.253 226.866  0.00  0.00    -0.035 C 
ATOM     16  C   UNL d   1     110.948 142.686 229.224  0.00  0.00     0.004 C 
ATOM     17  C   UNL d   1     109.462 145.403 228.647  0.00  0.00     0.051 C 
ATOM     18  C   UNL d   1     110.372 145.217 230.994  0.00  0.00     0.030 C 
ATOM     19  C   UNL d   1     109.618 146.096 229.999  0.00  0.00     0.115 C 
ENDROOT
BRANCH   5  20
ATOM     20  C   UNL d   1     117.258 140.615 226.335  0.00  0.00     0.000 C 
ATOM     21  C   UNL d   1     118.576 140.648 227.120  0.00  0.00     0.000 C 
BRANCH  20  22
ATOM     22  C   UNL d   1     117.505 140.194 224.857  0.00  0.00     0.000 C 
BRANCH  22  23
ATOM     23  C   UNL d   1     116.815 138.918 224.350  0.00  0.00     0.000 C 
BRANCH  23  24
ATOM     24  C   UNL d   1     115.366 139.074 223.873  0.00  0.00     0.000 C 
BRANCH  24  25
ATOM     25  C   UNL d   1     115.188 139.302 222.361  0.00  0.00     0.000 C 
ATOM     26  C   UNL d   1     115.025 140.787 222.023  0.00  0.00     0.000 C 
ATOM     27  C   UNL d   1     116.384 138.726 221.599  0.00  0.00     0.000 C 
ENDBRANCH  24  25
ENDBRANCH  23  24
ENDBRANCH  22  23
ENDBRANCH  20  22
ENDBRANCH   5  20
BRANCH  19  28
ATOM     28  O   UNL d   1     108.322 146.390 230.517  0.00  0.00    -0.385 OA
ATOM     29  H   UNL d   1     108.348 147.296 230.875  0.00  0.00     0.210 HD
ENDBRANCH  19  28
TORSDOF 6
ENDMDL
MODEL 18
REMARK VINA RESULT:    -6.782     33.514     37.746
REMARK INTER + INTRA:          -9.699
REMARK INTER:                  -8.941
REMARK INTRA:                  -0.757
REMARK UNBOUND:                -0.737
REMARK  6 active torsions:
REMARK  status: ('A' for Active; 'I' for Inactive)
REMARK    1  A    between atoms: O_1  and  C_22 
REMARK    2  A    between atoms: C_6  and  C_13 
REMARK    3  A    between atoms: C_13  and  C_21 
REMARK    4  A    between atoms: C_21  and  C_24 
REMARK    5  A    between atoms: C_24  and  C_25 
REMARK    6  A    between atoms: C_25  and  C_26 
ROOT
ATOM      1  C   UNL d   1     106.632 147.061 184.975  0.00  0.00     0.000 C 
ATOM      2  C   UNL d   1     106.304 145.829 185.857  0.00  0.00     0.000 C 
ATOM      3  C   UNL d   1     105.060 146.049 186.720  0.00  0.00     0.005 C 
ATOM      4  C   UNL d   1     103.827 146.320 185.809  0.00  0.00     0.004 C 
ATOM      5  C   UNL d   1     108.000 146.631 184.354  0.00  0.00     0.000 C 
ATOM      6  C   UNL d   1     105.471 147.148 183.966  0.00  0.00     0.000 C 
ATOM      7  C   UNL d   1     102.547 146.668 186.671  0.00  0.00     0.015 C 
ATOM      8  C   UNL d   1     107.615 145.524 186.557  0.00  0.00     0.000 C 
ATOM      9  C   UNL d   1     104.114 147.336 184.666  0.00  0.00     0.000 C 
ATOM     10  C   UNL d   1     108.667 145.777 185.475  0.00  0.00     0.000 C 
ATOM     11  C   UNL d   1     104.785 144.854 187.645  0.00  0.00     0.025 C 
ATOM     12  C   UNL d   1     106.762 148.361 185.808  0.00  0.00     0.000 C 
ATOM     13  C   UNL d   1     102.442 145.736 187.887  0.00  0.00    -0.047 C 
ATOM     14  C   UNL d   1     101.287 146.469 185.779  0.00  0.00     0.006 C 
ATOM     15  C   UNL d   1     103.435 144.925 188.287  0.00  0.00    -0.035 C 
ATOM     16  C   UNL d   1     102.593 148.130 187.179  0.00  0.00     0.004 C 
ATOM     17  C   UNL d   1     101.127 145.755 188.642  0.00  0.00     0.051 C 
ATOM     18  C   UNL d   1      99.963 146.534 186.542  0.00  0.00     0.030 C 
ATOM     19  C   UNL d   1      99.936 145.548 187.707  0.00  0.00     0.115 C 
ENDROOT
BRANCH   5  20
ATOM     20  C   UNL d   1     108.983 147.717 183.795  0.00  0.00     0.000 C 
ATOM     21  C   UNL d   1     108.255 148.917 183.177  0.00  0.00     0.000 C 
BRANCH  20  22
ATOM     22  C   UNL d   1     109.943 147.060 182.761  0.00  0.00     0.000 C 
BRANCH  22  23
ATOM     23  C   UNL d   1     109.356 146.016 181.798  0.00  0.00     0.000 C 
BRANCH  23  24
ATOM     24  C   UNL d   1     109.374 146.381 180.309  0.00  0.00     0.000 C 
BRANCH  24  25
ATOM     25  C   UNL d   1     108.218 147.281 179.835  0.00  0.00     0.000 C 
ATOM     26  C   UNL d   1     108.096 147.298 178.309  0.00  0.00     0.000 C 
ATOM     27  C   UNL d   1     106.899 146.814 180.455  0.00  0.00     0.000 C 
ENDBRANCH  24  25
ENDBRANCH  23  24
ENDBRANCH  22  23
ENDBRANCH  20  22
ENDBRANCH   5  20
BRANCH  19  28
ATOM     28  O   UNL d   1      98.732 145.728 188.451  0.00  0.00    -0.385 OA
ATOM     29  H   UNL d   1      98.039 146.002 187.823  0.00  0.00     0.210 HD
ENDBRANCH  19  28
TORSDOF 6
ENDMDL
MODEL 19
REMARK VINA RESULT:    -6.751     24.625     28.070
REMARK INTER + INTRA:          -9.659
REMARK INTER:                  -8.473
REMARK INTRA:                  -1.186
REMARK UNBOUND:                -0.737
REMARK  6 active torsions:
REMARK  status: ('A' for Active; 'I' for Inactive)
REMARK    1  A    between atoms: O_1  and  C_22 
REMARK    2  A    between atoms: C_6  and  C_13 
REMARK    3  A    between atoms: C_13  and  C_21 
REMARK    4  A    between atoms: C_21  and  C_24 
REMARK    5  A    between atoms: C_24  and  C_25 
REMARK    6  A    between atoms: C_25  and  C_26 
ROOT
ATOM      1  C   UNL d   1     134.644 143.914 182.699  0.00  0.00     0.000 C 
ATOM      2  C   UNL d   1     133.792 143.512 181.468  0.00  0.00     0.000 C 
ATOM      3  C   UNL d   1     134.339 142.270 180.763  0.00  0.00     0.005 C 
ATOM      4  C   UNL d   1     134.345 141.065 181.747  0.00  0.00     0.004 C 
ATOM      5  C   UNL d   1     133.974 145.266 183.102  0.00  0.00     0.000 C 
ATOM      6  C   UNL d   1     134.441 142.771 183.713  0.00  0.00     0.000 C 
ATOM      7  C   UNL d   1     135.015 139.793 181.086  0.00  0.00     0.015 C 
ATOM      8  C   UNL d   1     133.681 144.798 180.669  0.00  0.00     0.000 C 
ATOM      9  C   UNL d   1     134.910 141.417 183.153  0.00  0.00     0.000 C 
ATOM     10  C   UNL d   1     133.513 145.875 181.744  0.00  0.00     0.000 C 
ATOM     11  C   UNL d   1     133.533 141.924 179.503  0.00  0.00     0.025 C 
ATOM     12  C   UNL d   1     136.140 144.098 182.341  0.00  0.00     0.000 C 
ATOM     13  C   UNL d   1     134.547 139.626 179.633  0.00  0.00    -0.047 C 
ATOM     14  C   UNL d   1     134.585 138.536 181.898  0.00  0.00     0.006 C 
ATOM     15  C   UNL d   1     133.872 140.571 178.959  0.00  0.00    -0.035 C 
ATOM     16  C   UNL d   1     136.559 139.906 181.090  0.00  0.00     0.004 C 
ATOM     17  C   UNL d   1     134.872 138.303 178.966  0.00  0.00     0.051 C 
ATOM     18  C   UNL d   1     134.957 137.207 181.238  0.00  0.00     0.030 C 
ATOM     19  C   UNL d   1     134.418 137.116 179.813  0.00  0.00     0.115 C 
ENDROOT
BRANCH   5  20
ATOM     20  C   UNL d   1     134.768 146.309 183.962  0.00  0.00     0.000 C 
ATOM     21  C   UNL d   1     134.393 146.265 185.448  0.00  0.00     0.000 C 
BRANCH  20  22
ATOM     22  C   UNL d   1     134.548 147.734 183.377  0.00  0.00     0.000 C 
BRANCH  22  23
ATOM     23  C   UNL d   1     135.789 148.592 183.089  0.00  0.00     0.000 C 
BRANCH  23  24
ATOM     24  C   UNL d   1     135.873 149.934 183.828  0.00  0.00     0.000 C 
BRANCH  24  25
ATOM     25  C   UNL d   1     136.578 149.891 185.196  0.00  0.00     0.000 C 
ATOM     26  C   UNL d   1     135.576 149.801 186.351  0.00  0.00     0.000 C 
ATOM     27  C   UNL d   1     137.543 148.705 185.254  0.00  0.00     0.000 C 
ENDBRANCH  24  25
ENDBRANCH  23  24
ENDBRANCH  22  23
ENDBRANCH  20  22
ENDBRANCH   5  20
BRANCH  19  28
ATOM     28  O   UNL d   1     134.886 135.914 179.206  0.00  0.00    -0.385 OA
ATOM     29  H   UNL d   1     135.020 136.097 178.258  0.00  0.00     0.210 HD
ENDBRANCH  19  28
TORSDOF 6
ENDMDL
MODEL 20
REMARK VINA RESULT:    -6.543     23.553     26.789
REMARK INTER + INTRA:          -9.384
REMARK INTER:                  -7.805
REMARK INTRA:                  -1.578
REMARK UNBOUND:                -0.737
REMARK  6 active torsions:
REMARK  status: ('A' for Active; 'I' for Inactive)
REMARK    1  A    between atoms: O_1  and  C_22 
REMARK    2  A    between atoms: C_6  and  C_13 
REMARK    3  A    between atoms: C_13  and  C_21 
REMARK    4  A    between atoms: C_21  and  C_24 
REMARK    5  A    between atoms: C_24  and  C_25 
REMARK    6  A    between atoms: C_25  and  C_26 
ROOT
ATOM      1  C   UNL d   1     134.309 144.080 182.170  0.00  0.00     0.000 C 
ATOM      2  C   UNL d   1     133.383 143.520 181.060  0.00  0.00     0.000 C 
ATOM      3  C   UNL d   1     133.970 142.279 180.386  0.00  0.00     0.005 C 
ATOM      4  C   UNL d   1     134.179 141.154 181.440  0.00  0.00     0.004 C 
ATOM      5  C   UNL d   1     133.561 145.397 182.551  0.00  0.00     0.000 C 
ATOM      6  C   UNL d   1     134.307 143.002 183.271  0.00  0.00     0.000 C 
ATOM      7  C   UNL d   1     134.895 139.897 180.799  0.00  0.00     0.015 C 
ATOM      8  C   UNL d   1     133.080 144.729 180.195  0.00  0.00     0.000 C 
ATOM      9  C   UNL d   1     134.841 141.654 182.756  0.00  0.00     0.000 C 
ATOM     10  C   UNL d   1     132.919 145.864 181.209  0.00  0.00     0.000 C 
ATOM     11  C   UNL d   1     133.083 141.775 179.239  0.00  0.00     0.025 C 
ATOM     12  C   UNL d   1     135.741 144.362 181.650  0.00  0.00     0.000 C 
ATOM     13  C   UNL d   1     134.307 139.585 179.415  0.00  0.00    -0.047 C 
ATOM     14  C   UNL d   1     134.660 138.672 181.730  0.00  0.00     0.006 C 
ATOM     15  C   UNL d   1     133.488 140.419 178.753  0.00  0.00    -0.035 C 
ATOM     16  C   UNL d   1     136.416 140.138 180.639  0.00  0.00     0.004 C 
ATOM     17  C   UNL d   1     134.685 138.249 178.805  0.00  0.00     0.051 C 
ATOM     18  C   UNL d   1     135.086 137.334 181.123  0.00  0.00     0.030 C 
ATOM     19  C   UNL d   1     134.423 137.094 179.769  0.00  0.00     0.115 C 
ENDROOT
BRANCH   5  20
ATOM     20  C   UNL d   1     134.336 146.564 183.255  0.00  0.00     0.000 C 
ATOM     21  C   UNL d   1     134.222 146.516 184.784  0.00  0.00     0.000 C 
BRANCH  20  22
ATOM     22  C   UNL d   1     133.828 147.928 182.705  0.00  0.00     0.000 C 
BRANCH  22  23
ATOM     23  C   UNL d   1     134.868 149.029 182.445  0.00  0.00     0.000 C 
BRANCH  23  24
ATOM     24  C   UNL d   1     135.868 148.764 181.312  0.00  0.00     0.000 C 
BRANCH  24  25
ATOM     25  C   UNL d   1     135.251 148.291 179.984  0.00  0.00     0.000 C 
ATOM     26  C   UNL d   1     135.018 149.454 179.015  0.00  0.00     0.000 C 
ATOM     27  C   UNL d   1     136.154 147.244 179.327  0.00  0.00     0.000 C 
ENDBRANCH  24  25
ENDBRANCH  23  24
ENDBRANCH  22  23
ENDBRANCH  20  22
ENDBRANCH   5  20
BRANCH  19  28
ATOM     28  O   UNL d   1     134.938 135.893 179.197  0.00  0.00    -0.385 OA
ATOM     29  H   UNL d   1     134.964 136.017 178.231  0.00  0.00     0.210 HD
ENDBRANCH  19  28
TORSDOF 6
ENDMDL
