MODEL 1
REMARK VINA RESULT:    -9.473      0.000      0.000
REMARK INTER + INTRA:         -13.265
REMARK INTER:                 -12.519
REMARK INTRA:                  -0.746
REMARK UNBOUND:                -0.746
REMARK  6 active torsions:
REMARK  status: ('A' for Active; 'I' for Inactive)
REMARK    1  A    between atoms: O_1  and  C_22 
REMARK    2  A    between atoms: C_6  and  C_13 
REMARK    3  A    between atoms: C_13  and  C_21 
REMARK    4  A    between atoms: C_21  and  C_24 
REMARK    5  A    between atoms: C_24  and  C_25 
REMARK    6  A    between atoms: C_25  and  C_26 
ROOT
ATOM      1  C   UNL d   1     128.040 131.324 158.338  0.00  0.00     0.000 C 
ATOM      2  C   UNL d   1     127.634 132.306 159.466  0.00  0.00     0.000 C 
ATOM      3  C   UNL d   1     126.699 131.660 160.490  0.00  0.00     0.005 C 
ATOM      4  C   UNL d   1     127.405 130.443 161.154  0.00  0.00     0.004 C 
ATOM      5  C   UNL d   1     128.828 132.274 157.380  0.00  0.00     0.000 C 
ATOM      6  C   UNL d   1     128.906 130.256 159.034  0.00  0.00     0.000 C 
ATOM      7  C   UNL d   1     126.424 129.679 162.133  0.00  0.00     0.015 C 
ATOM      8  C   UNL d   1     127.141 133.532 158.720  0.00  0.00     0.000 C 
ATOM      9  C   UNL d   1     128.129 129.515 160.136  0.00  0.00     0.000 C 
ATOM     10  C   UNL d   1     128.108 133.647 157.539  0.00  0.00     0.000 C 
ATOM     11  C   UNL d   1     126.243 132.659 161.562  0.00  0.00     0.025 C 
ATOM     12  C   UNL d   1     126.810 130.693 157.638  0.00  0.00     0.000 C 
ATOM     13  C   UNL d   1     125.609 130.675 162.970  0.00  0.00    -0.047 C 
ATOM     14  C   UNL d   1     127.276 128.798 163.092  0.00  0.00     0.006 C 
ATOM     15  C   UNL d   1     125.561 131.993 162.715  0.00  0.00    -0.035 C 
ATOM     16  C   UNL d   1     125.437 128.779 161.349  0.00  0.00     0.004 C 
ATOM     17  C   UNL d   1     124.843 130.101 164.146  0.00  0.00     0.051 C 
ATOM     18  C   UNL d   1     126.485 128.188 164.250  0.00  0.00     0.030 C 
ATOM     19  C   UNL d   1     125.741 129.255 165.047  0.00  0.00     0.115 C 
ENDROOT
BRANCH   5  20
ATOM     20  C   UNL d   1     129.010 131.890 155.871  0.00  0.00     0.000 C 
ATOM     21  C   UNL d   1     130.448 131.481 155.530  0.00  0.00     0.000 C 
BRANCH  20  22
ATOM     22  C   UNL d   1     128.546 133.077 154.977  0.00  0.00     0.000 C 
BRANCH  22  23
ATOM     23  C   UNL d   1     128.717 132.940 153.457  0.00  0.00     0.000 C 
BRANCH  23  24
ATOM     24  C   UNL d   1     129.600 133.993 152.775  0.00  0.00     0.000 C 
BRANCH  24  25
ATOM     25  C   UNL d   1     129.030 134.592 151.476  0.00  0.00     0.000 C 
ATOM     26  C   UNL d   1     129.206 133.645 150.285  0.00  0.00     0.000 C 
ATOM     27  C   UNL d   1     127.546 134.925 151.657  0.00  0.00     0.000 C 
ENDBRANCH  24  25
ENDBRANCH  23  24
ENDBRANCH  22  23
ENDBRANCH  20  22
ENDBRANCH   5  20
BRANCH  19  28
ATOM     28  O   UNL d   1     124.933 128.626 166.040  0.00  0.00    -0.385 OA
ATOM     29  H   UNL d   1     124.587 129.327 166.623  0.00  0.00     0.210 HD
ENDBRANCH  19  28
TORSDOF 6
ENDMDL
MODEL 2
REMARK VINA RESULT:    -9.035      5.750      8.706
REMARK INTER + INTRA:         -12.686
REMARK INTER:                 -11.434
REMARK INTRA:                  -1.252
REMARK UNBOUND:                -0.746
REMARK  6 active torsions:
REMARK  status: ('A' for Active; 'I' for Inactive)
REMARK    1  A    between atoms: O_1  and  C_22 
REMARK    2  A    between atoms: C_6  and  C_13 
REMARK    3  A    between atoms: C_13  and  C_21 
REMARK    4  A    between atoms: C_21  and  C_24 
REMARK    5  A    between atoms: C_24  and  C_25 
REMARK    6  A    between atoms: C_25  and  C_26 
ROOT
ATOM      1  C   UNL d   1     130.023 127.250 154.183  0.00  0.00     0.000 C 
ATOM      2  C   UNL d   1     131.019 127.826 155.222  0.00  0.00     0.000 C 
ATOM      3  C   UNL d   1     130.970 129.353 155.288  0.00  0.00     0.005 C 
ATOM      4  C   UNL d   1     129.542 129.818 155.695  0.00  0.00     0.004 C 
ATOM      5  C   UNL d   1     130.403 125.735 154.207  0.00  0.00     0.000 C 
ATOM      6  C   UNL d   1     128.627 127.569 154.752  0.00  0.00     0.000 C 
ATOM      7  C   UNL d   1     129.423 131.395 155.660  0.00  0.00     0.015 C 
ATOM      8  C   UNL d   1     132.338 127.168 154.862  0.00  0.00     0.000 C 
ATOM      9  C   UNL d   1     128.408 129.082 154.924  0.00  0.00     0.000 C 
ATOM     10  C   UNL d   1     131.936 125.739 154.487  0.00  0.00     0.000 C 
ATOM     11  C   UNL d   1     132.011 129.919 156.264  0.00  0.00     0.025 C 
ATOM     12  C   UNL d   1     130.219 127.870 152.776  0.00  0.00     0.000 C 
ATOM     13  C   UNL d   1     130.671 132.047 156.271  0.00  0.00    -0.047 C 
ATOM     14  C   UNL d   1     128.179 131.812 156.497  0.00  0.00     0.006 C 
ATOM     15  C   UNL d   1     131.797 131.372 156.553  0.00  0.00    -0.035 C 
ATOM     16  C   UNL d   1     129.264 131.913 154.209  0.00  0.00     0.004 C 
ATOM     17  C   UNL d   1     130.581 133.531 156.570  0.00  0.00     0.051 C 
ATOM     18  C   UNL d   1     128.073 133.316 156.755  0.00  0.00     0.030 C 
ATOM     19  C   UNL d   1     129.343 133.867 157.399  0.00  0.00     0.115 C 
ENDROOT
BRANCH   5  20
ATOM     20  C   UNL d   1     130.042 124.817 152.989  0.00  0.00     0.000 C 
ATOM     21  C   UNL d   1     128.551 124.463 152.931  0.00  0.00     0.000 C 
BRANCH  20  22
ATOM     22  C   UNL d   1     130.914 123.528 153.038  0.00  0.00     0.000 C 
BRANCH  22  23
ATOM     23  C   UNL d   1     131.725 123.162 151.786  0.00  0.00     0.000 C 
BRANCH  23  24
ATOM     24  C   UNL d   1     133.189 123.621 151.767  0.00  0.00     0.000 C 
BRANCH  24  25
ATOM     25  C   UNL d   1     133.543 124.654 150.682  0.00  0.00     0.000 C 
ATOM     26  C   UNL d   1     133.462 126.089 151.211  0.00  0.00     0.000 C 
ATOM     27  C   UNL d   1     134.947 124.382 150.136  0.00  0.00     0.000 C 
ENDBRANCH  24  25
ENDBRANCH  23  24
ENDBRANCH  22  23
ENDBRANCH  20  22
ENDBRANCH   5  20
BRANCH  19  28
ATOM     28  O   UNL d   1     129.238 135.285 157.514  0.00  0.00    -0.385 OA
ATOM     29  H   UNL d   1     130.034 135.671 157.104  0.00  0.00     0.210 HD
ENDBRANCH  19  28
TORSDOF 6
ENDMDL
MODEL 3
REMARK VINA RESULT:    -8.769     14.221     16.146
REMARK INTER + INTRA:         -12.334
REMARK INTER:                 -10.615
REMARK INTRA:                  -1.719
REMARK UNBOUND:                -0.746
REMARK  6 active torsions:
REMARK  status: ('A' for Active; 'I' for Inactive)
REMARK    1  A    between atoms: O_1  and  C_22 
REMARK    2  A    between atoms: C_6  and  C_13 
REMARK    3  A    between atoms: C_13  and  C_21 
REMARK    4  A    between atoms: C_21  and  C_24 
REMARK    5  A    between atoms: C_24  and  C_25 
REMARK    6  A    between atoms: C_25  and  C_26 
ROOT
ATOM      1  C   UNL d   1     126.683 125.624 171.496  0.00  0.00     0.000 C 
ATOM      2  C   UNL d   1     128.120 125.927 170.999  0.00  0.00     0.000 C 
ATOM      3  C   UNL d   1     129.042 124.712 171.115  0.00  0.00     0.005 C 
ATOM      4  C   UNL d   1     128.482 123.540 170.258  0.00  0.00     0.004 C 
ATOM      5  C   UNL d   1     126.033 127.042 171.424  0.00  0.00     0.000 C 
ATOM      6  C   UNL d   1     126.117 124.609 170.484  0.00  0.00     0.000 C 
ATOM      7  C   UNL d   1     129.348 122.230 170.449  0.00  0.00     0.015 C 
ATOM      8  C   UNL d   1     128.503 127.191 171.745  0.00  0.00     0.000 C 
ATOM      9  C   UNL d   1     126.953 123.318 170.438  0.00  0.00     0.000 C 
ATOM     10  C   UNL d   1     127.210 128.010 171.751  0.00  0.00     0.000 C 
ATOM     11  C   UNL d   1     130.480 125.041 170.691  0.00  0.00     0.025 C 
ATOM     12  C   UNL d   1     126.669 125.058 172.939  0.00  0.00     0.000 C 
ATOM     13  C   UNL d   1     130.847 122.565 170.448  0.00  0.00    -0.047 C 
ATOM     14  C   UNL d   1     129.050 121.269 169.262  0.00  0.00     0.006 C 
ATOM     15  C   UNL d   1     131.326 123.817 170.532  0.00  0.00    -0.035 C 
ATOM     16  C   UNL d   1     129.008 121.521 171.783  0.00  0.00     0.004 C 
ATOM     17  C   UNL d   1     131.802 121.393 170.331  0.00  0.00     0.051 C 
ATOM     18  C   UNL d   1     129.991 120.065 169.179  0.00  0.00     0.030 C 
ATOM     19  C   UNL d   1     131.455 120.497 169.144  0.00  0.00     0.115 C 
ENDROOT
BRANCH   5  20
ATOM     20  C   UNL d   1     124.763 127.368 172.283  0.00  0.00     0.000 C 
ATOM     21  C   UNL d   1     123.452 127.063 171.548  0.00  0.00     0.000 C 
BRANCH  20  22
ATOM     22  C   UNL d   1     124.812 128.857 172.733  0.00  0.00     0.000 C 
BRANCH  22  23
ATOM     23  C   UNL d   1     124.692 129.158 174.234  0.00  0.00     0.000 C 
BRANCH  23  24
ATOM     24  C   UNL d   1     126.005 129.426 174.980  0.00  0.00     0.000 C 
BRANCH  24  25
ATOM     25  C   UNL d   1     126.494 128.282 175.886  0.00  0.00     0.000 C 
ATOM     26  C   UNL d   1     125.452 127.167 176.012  0.00  0.00     0.000 C 
ATOM     27  C   UNL d   1     127.805 127.705 175.345  0.00  0.00     0.000 C 
ENDBRANCH  24  25
ENDBRANCH  23  24
ENDBRANCH  22  23
ENDBRANCH  20  22
ENDBRANCH   5  20
BRANCH  19  28
ATOM     28  O   UNL d   1     132.289 119.341 169.181  0.00  0.00    -0.385 OA
ATOM     29  H   UNL d   1     132.692 119.300 170.068  0.00  0.00     0.210 HD
ENDBRANCH  19  28
TORSDOF 6
ENDMDL
MODEL 4
REMARK VINA RESULT:    -8.766      2.293      3.153
REMARK INTER + INTRA:         -12.331
REMARK INTER:                 -11.037
REMARK INTRA:                  -1.294
REMARK UNBOUND:                -0.746
REMARK  6 active torsions:
REMARK  status: ('A' for Active; 'I' for Inactive)
REMARK    1  A    between atoms: O_1  and  C_22 
REMARK    2  A    between atoms: C_6  and  C_13 
REMARK    3  A    between atoms: C_13  and  C_21 
REMARK    4  A    between atoms: C_21  and  C_24 
REMARK    5  A    between atoms: C_24  and  C_25 
REMARK    6  A    between atoms: C_25  and  C_26 
ROOT
ATOM      1  C   UNL d   1     128.201 130.261 158.968  0.00  0.00     0.000 C 
ATOM      2  C   UNL d   1     127.754 131.530 159.738  0.00  0.00     0.000 C 
ATOM      3  C   UNL d   1     126.751 131.211 160.848  0.00  0.00     0.005 C 
ATOM      4  C   UNL d   1     127.395 130.237 161.876  0.00  0.00     0.004 C 
ATOM      5  C   UNL d   1     129.059 130.889 157.823  0.00  0.00     0.000 C 
ATOM      6  C   UNL d   1     129.006 129.437 159.992  0.00  0.00     0.000 C 
ATOM      7  C   UNL d   1     126.346 129.794 162.975  0.00  0.00     0.015 C 
ATOM      8  C   UNL d   1     127.327 132.487 158.641  0.00  0.00     0.000 C 
ATOM      9  C   UNL d   1     128.154 129.051 161.214  0.00  0.00     0.000 C 
ATOM     10  C   UNL d   1     128.359 132.251 157.536  0.00  0.00     0.000 C 
ATOM     11  C   UNL d   1     126.257 132.481 161.556  0.00  0.00     0.025 C 
ATOM     12  C   UNL d   1     126.998 129.459 158.410  0.00  0.00     0.000 C 
ATOM     13  C   UNL d   1     125.507 130.993 163.439  0.00  0.00    -0.047 C 
ATOM     14  C   UNL d   1     127.127 129.227 164.197  0.00  0.00     0.006 C 
ATOM     15  C   UNL d   1     125.500 132.180 162.811  0.00  0.00    -0.035 C 
ATOM     16  C   UNL d   1     125.385 128.709 162.429  0.00  0.00     0.004 C 
ATOM     17  C   UNL d   1     124.666 130.788 164.685  0.00  0.00     0.051 C 
ATOM     18  C   UNL d   1     126.261 128.981 165.434  0.00  0.00     0.030 C 
ATOM     19  C   UNL d   1     125.496 130.237 165.843  0.00  0.00     0.115 C 
ENDROOT
BRANCH   5  20
ATOM     20  C   UNL d   1     129.316 130.083 156.503  0.00  0.00     0.000 C 
ATOM     21  C   UNL d   1     130.807 129.863 156.221  0.00  0.00     0.000 C 
BRANCH  20  22
ATOM     22  C   UNL d   1     128.629 130.811 155.312  0.00  0.00     0.000 C 
BRANCH  22  23
ATOM     23  C   UNL d   1     127.788 129.966 154.343  0.00  0.00     0.000 C 
BRANCH  23  24
ATOM     24  C   UNL d   1     126.586 129.232 154.950  0.00  0.00     0.000 C 
BRANCH  24  25
ATOM     25  C   UNL d   1     126.549 127.712 154.706  0.00  0.00     0.000 C 
ATOM     26  C   UNL d   1     126.461 127.375 153.215  0.00  0.00     0.000 C 
ATOM     27  C   UNL d   1     127.789 127.052 155.314  0.00  0.00     0.000 C 
ENDBRANCH  24  25
ENDBRANCH  23  24
ENDBRANCH  22  23
ENDBRANCH  20  22
ENDBRANCH   5  20
BRANCH  19  28
ATOM     28  O   UNL d   1     124.622 129.926 166.926  0.00  0.00    -0.385 OA
ATOM     29  H   UNL d   1     125.103 130.114 167.753  0.00  0.00     0.210 HD
ENDBRANCH  19  28
TORSDOF 6
ENDMDL
MODEL 5
REMARK VINA RESULT:    -8.680     13.465     16.249
REMARK INTER + INTRA:         -12.216
REMARK INTER:                 -10.694
REMARK INTRA:                  -1.522
REMARK UNBOUND:                -0.746
REMARK  6 active torsions:
REMARK  status: ('A' for Active; 'I' for Inactive)
REMARK    1  A    between atoms: O_1  and  C_22 
REMARK    2  A    between atoms: C_6  and  C_13 
REMARK    3  A    between atoms: C_13  and  C_21 
REMARK    4  A    between atoms: C_21  and  C_24 
REMARK    5  A    between atoms: C_24  and  C_25 
REMARK    6  A    between atoms: C_25  and  C_26 
ROOT
ATOM      1  C   UNL d   1     126.438 124.753 170.919  0.00  0.00     0.000 C 
ATOM      2  C   UNL d   1     126.914 123.651 171.900  0.00  0.00     0.000 C 
ATOM      3  C   UNL d   1     128.019 122.779 171.302  0.00  0.00     0.005 C 
ATOM      4  C   UNL d   1     129.251 123.660 170.947  0.00  0.00     0.004 C 
ATOM      5  C   UNL d   1     125.230 125.356 171.705  0.00  0.00     0.000 C 
ATOM      6  C   UNL d   1     127.644 125.702 170.772  0.00  0.00     0.000 C 
ATOM      7  C   UNL d   1     130.369 122.809 170.218  0.00  0.00     0.015 C 
ATOM      8  C   UNL d   1     125.627 122.976 172.337  0.00  0.00     0.000 C 
ATOM      9  C   UNL d   1     128.879 124.978 170.208  0.00  0.00     0.000 C 
ATOM     10  C   UNL d   1     124.641 124.138 172.477  0.00  0.00     0.000 C 
ATOM     11  C   UNL d   1     128.431 121.645 172.250  0.00  0.00     0.025 C 
ATOM     12  C   UNL d   1     126.001 124.171 169.551  0.00  0.00     0.000 C 
ATOM     13  C   UNL d   1     130.541 121.444 170.897  0.00  0.00    -0.047 C 
ATOM     14  C   UNL d   1     131.714 123.587 170.308  0.00  0.00     0.006 C 
ATOM     15  C   UNL d   1     129.686 120.957 171.811  0.00  0.00    -0.035 C 
ATOM     16  C   UNL d   1     130.011 122.571 168.730  0.00  0.00     0.004 C 
ATOM     17  C   UNL d   1     131.763 120.639 170.497  0.00  0.00     0.051 C 
ATOM     18  C   UNL d   1     132.934 122.782 169.860  0.00  0.00     0.030 C 
ATOM     19  C   UNL d   1     133.045 121.460 170.617  0.00  0.00     0.115 C 
ENDROOT
BRANCH   5  20
ATOM     20  C   UNL d   1     124.114 126.148 170.940  0.00  0.00     0.000 C 
ATOM     21  C   UNL d   1     124.655 127.384 170.210  0.00  0.00     0.000 C 
BRANCH  20  22
ATOM     22  C   UNL d   1     122.987 126.545 171.937  0.00  0.00     0.000 C 
BRANCH  22  23
ATOM     23  C   UNL d   1     123.260 127.706 172.905  0.00  0.00     0.000 C 
BRANCH  23  24
ATOM     24  C   UNL d   1     123.696 127.320 174.324  0.00  0.00     0.000 C 
BRANCH  24  25
ATOM     25  C   UNL d   1     125.102 127.795 174.735  0.00  0.00     0.000 C 
ATOM     26  C   UNL d   1     126.017 126.622 175.098  0.00  0.00     0.000 C 
ATOM     27  C   UNL d   1     125.733 128.612 173.604  0.00  0.00     0.000 C 
ENDBRANCH  24  25
ENDBRANCH  23  24
ENDBRANCH  22  23
ENDBRANCH  20  22
ENDBRANCH   5  20
BRANCH  19  28
ATOM     28  O   UNL d   1     134.129 120.700 170.084  0.00  0.00    -0.385 OA
ATOM     29  H   UNL d   1     133.773 119.834 169.814  0.00  0.00     0.210 HD
ENDBRANCH  19  28
TORSDOF 6
ENDMDL
MODEL 6
REMARK VINA RESULT:    -8.561      4.862      7.451
REMARK INTER + INTRA:         -12.060
REMARK INTER:                 -10.600
REMARK INTRA:                  -1.460
REMARK UNBOUND:                -0.746
REMARK  6 active torsions:
REMARK  status: ('A' for Active; 'I' for Inactive)
REMARK    1  A    between atoms: O_1  and  C_22 
REMARK    2  A    between atoms: C_6  and  C_13 
REMARK    3  A    between atoms: C_13  and  C_21 
REMARK    4  A    between atoms: C_21  and  C_24 
REMARK    5  A    between atoms: C_24  and  C_25 
REMARK    6  A    between atoms: C_25  and  C_26 
ROOT
ATOM      1  C   UNL d   1     130.419 127.469 156.529  0.00  0.00     0.000 C 
ATOM      2  C   UNL d   1     131.333 128.721 156.522  0.00  0.00     0.000 C 
ATOM      3  C   UNL d   1     130.535 130.022 156.425  0.00  0.00     0.005 C 
ATOM      4  C   UNL d   1     129.576 130.145 157.644  0.00  0.00     0.004 C 
ATOM      5  C   UNL d   1     131.477 126.322 156.462  0.00  0.00     0.000 C 
ATOM      6  C   UNL d   1     129.646 127.550 157.860  0.00  0.00     0.000 C 
ATOM      7  C   UNL d   1     128.651 131.421 157.515  0.00  0.00     0.015 C 
ATOM      8  C   UNL d   1     132.348 128.422 155.434  0.00  0.00     0.000 C 
ATOM      9  C   UNL d   1     128.801 128.832 157.957  0.00  0.00     0.000 C 
ATOM     10  C   UNL d   1     132.632 126.928 155.609  0.00  0.00     0.000 C 
ATOM     11  C   UNL d   1     131.450 131.252 156.342  0.00  0.00     0.025 C 
ATOM     12  C   UNL d   1     129.458 127.437 155.313  0.00  0.00     0.000 C 
ATOM     13  C   UNL d   1     129.458 132.629 157.020  0.00  0.00    -0.047 C 
ATOM     14  C   UNL d   1     128.072 131.750 158.922  0.00  0.00     0.006 C 
ATOM     15  C   UNL d   1     130.704 132.536 156.526  0.00  0.00    -0.035 C 
ATOM     16  C   UNL d   1     127.487 131.173 156.525  0.00  0.00     0.004 C 
ATOM     17  C   UNL d   1     128.782 133.983 157.122  0.00  0.00     0.051 C 
ATOM     18  C   UNL d   1     127.352 133.098 159.004  0.00  0.00     0.030 C 
ATOM     19  C   UNL d   1     128.244 134.241 158.528  0.00  0.00     0.115 C 
ENDROOT
BRANCH   5  20
ATOM     20  C   UNL d   1     131.062 124.902 155.945  0.00  0.00     0.000 C 
ATOM     21  C   UNL d   1     130.825 123.900 157.081  0.00  0.00     0.000 C 
BRANCH  20  22
ATOM     22  C   UNL d   1     132.145 124.374 154.959  0.00  0.00     0.000 C 
BRANCH  22  23
ATOM     23  C   UNL d   1     131.673 123.576 153.735  0.00  0.00     0.000 C 
BRANCH  23  24
ATOM     24  C   UNL d   1     131.843 124.259 152.372  0.00  0.00     0.000 C 
BRANCH  24  25
ATOM     25  C   UNL d   1     132.371 125.705 152.420  0.00  0.00     0.000 C 
ATOM     26  C   UNL d   1     133.463 125.948 151.374  0.00  0.00     0.000 C 
ATOM     27  C   UNL d   1     131.221 126.692 152.206  0.00  0.00     0.000 C 
ENDBRANCH  24  25
ENDBRANCH  23  24
ENDBRANCH  22  23
ENDBRANCH  20  22
ENDBRANCH   5  20
BRANCH  19  28
ATOM     28  O   UNL d   1     127.493 135.454 158.517  0.00  0.00    -0.385 OA
ATOM     29  H   UNL d   1     126.817 135.372 157.819  0.00  0.00     0.210 HD
ENDBRANCH  19  28
TORSDOF 6
ENDMDL
MODEL 7
REMARK VINA RESULT:    -8.486     13.238     15.723
REMARK INTER + INTRA:         -11.960
REMARK INTER:                 -10.774
REMARK INTRA:                  -1.186
REMARK UNBOUND:                -0.746
REMARK  6 active torsions:
REMARK  status: ('A' for Active; 'I' for Inactive)
REMARK    1  A    between atoms: O_1  and  C_22 
REMARK    2  A    between atoms: C_6  and  C_13 
REMARK    3  A    between atoms: C_13  and  C_21 
REMARK    4  A    between atoms: C_21  and  C_24 
REMARK    5  A    between atoms: C_24  and  C_25 
REMARK    6  A    between atoms: C_25  and  C_26 
ROOT
ATOM      1  C   UNL d   1     126.767 124.705 172.313  0.00  0.00     0.000 C 
ATOM      2  C   UNL d   1     128.014 125.508 171.861  0.00  0.00     0.000 C 
ATOM      3  C   UNL d   1     129.226 124.608 171.617  0.00  0.00     0.005 C 
ATOM      4  C   UNL d   1     128.900 123.575 170.501  0.00  0.00     0.004 C 
ATOM      5  C   UNL d   1     125.768 125.860 172.644  0.00  0.00     0.000 C 
ATOM      6  C   UNL d   1     126.378 123.854 171.089  0.00  0.00     0.000 C 
ATOM      7  C   UNL d   1     130.091 122.553 170.305  0.00  0.00     0.015 C 
ATOM      8  C   UNL d   1     128.135 126.605 172.903  0.00  0.00     0.000 C 
ATOM      9  C   UNL d   1     127.509 122.899 170.671  0.00  0.00     0.000 C 
ATOM     10  C   UNL d   1     126.683 127.005 173.174  0.00  0.00     0.000 C 
ATOM     11  C   UNL d   1     130.476 125.418 171.243  0.00  0.00     0.025 C 
ATOM     12  C   UNL d   1     127.056 123.822 173.553  0.00  0.00     0.000 C 
ATOM     13  C   UNL d   1     131.442 123.280 170.338  0.00  0.00    -0.047 C 
ATOM     14  C   UNL d   1     129.926 121.868 168.916  0.00  0.00     0.006 C 
ATOM     15  C   UNL d   1     131.588 124.556 170.734  0.00  0.00    -0.035 C 
ATOM     16  C   UNL d   1     130.092 121.472 171.414  0.00  0.00     0.004 C 
ATOM     17  C   UNL d   1     132.650 122.486 169.879  0.00  0.00     0.051 C 
ATOM     18  C   UNL d   1     131.131 121.033 168.482  0.00  0.00     0.030 C 
ATOM     19  C   UNL d   1     132.421 121.849 168.510  0.00  0.00     0.115 C 
ENDROOT
BRANCH   5  20
ATOM     20  C   UNL d   1     124.557 125.598 173.605  0.00  0.00     0.000 C 
ATOM     21  C   UNL d   1     123.698 124.405 173.169  0.00  0.00     0.000 C 
BRANCH  20  22
ATOM     22  C   UNL d   1     123.696 126.889 173.714  0.00  0.00     0.000 C 
BRANCH  22  23
ATOM     23  C   UNL d   1     123.203 127.536 172.410  0.00  0.00     0.000 C 
BRANCH  23  24
ATOM     24  C   UNL d   1     123.600 129.001 172.187  0.00  0.00     0.000 C 
BRANCH  24  25
ATOM     25  C   UNL d   1     124.429 129.275 170.919  0.00  0.00     0.000 C 
ATOM     26  C   UNL d   1     125.760 129.958 171.244  0.00  0.00     0.000 C 
ATOM     27  C   UNL d   1     124.689 127.966 170.168  0.00  0.00     0.000 C 
ENDBRANCH  24  25
ENDBRANCH  23  24
ENDBRANCH  22  23
ENDBRANCH  20  22
ENDBRANCH   5  20
BRANCH  19  28
ATOM     28  O   UNL d   1     133.525 120.999 168.209  0.00  0.00    -0.385 OA
ATOM     29  H   UNL d   1     133.253 120.414 167.478  0.00  0.00     0.210 HD
ENDBRANCH  19  28
TORSDOF 6
ENDMDL
MODEL 8
REMARK VINA RESULT:    -8.441     13.306     15.245
REMARK INTER + INTRA:         -11.902
REMARK INTER:                 -10.581
REMARK INTRA:                  -1.321
REMARK UNBOUND:                -0.746
REMARK  6 active torsions:
REMARK  status: ('A' for Active; 'I' for Inactive)
REMARK    1  A    between atoms: O_1  and  C_22 
REMARK    2  A    between atoms: C_6  and  C_13 
REMARK    3  A    between atoms: C_13  and  C_21 
REMARK    4  A    between atoms: C_21  and  C_24 
REMARK    5  A    between atoms: C_24  and  C_25 
REMARK    6  A    between atoms: C_25  and  C_26 
ROOT
ATOM      1  C   UNL d   1     127.767 123.378 171.380  0.00  0.00     0.000 C 
ATOM      2  C   UNL d   1     128.378 124.743 171.786  0.00  0.00     0.000 C 
ATOM      3  C   UNL d   1     127.520 125.923 171.326  0.00  0.00     0.005 C 
ATOM      4  C   UNL d   1     126.106 125.829 171.968  0.00  0.00     0.004 C 
ATOM      5  C   UNL d   1     128.903 122.397 171.814  0.00  0.00     0.000 C 
ATOM      6  C   UNL d   1     126.471 123.261 172.207  0.00  0.00     0.000 C 
ATOM      7  C   UNL d   1     125.155 126.969 171.421  0.00  0.00     0.015 C 
ATOM      8  C   UNL d   1     129.809 124.662 171.288  0.00  0.00     0.000 C 
ATOM      9  C   UNL d   1     125.488 124.403 171.897  0.00  0.00     0.000 C 
ATOM     10  C   UNL d   1     130.210 123.214 171.582  0.00  0.00     0.000 C 
ATOM     11  C   UNL d   1     128.170 127.272 171.666  0.00  0.00     0.025 C 
ATOM     12  C   UNL d   1     127.482 123.292 169.860  0.00  0.00     0.000 C 
ATOM     13  C   UNL d   1     125.901 128.308 171.345  0.00  0.00    -0.047 C 
ATOM     14  C   UNL d   1     123.956 127.119 172.403  0.00  0.00     0.006 C 
ATOM     15  C   UNL d   1     127.233 128.423 171.480  0.00  0.00    -0.035 C 
ATOM     16  C   UNL d   1     124.623 126.626 170.008  0.00  0.00     0.004 C 
ATOM     17  C   UNL d   1     125.051 129.544 171.117  0.00  0.00     0.051 C 
ATOM     18  C   UNL d   1     123.080 128.344 172.138  0.00  0.00     0.030 C 
ATOM     19  C   UNL d   1     123.901 129.630 172.118  0.00  0.00     0.115 C 
ENDROOT
BRANCH   5  20
ATOM     20  C   UNL d   1     128.994 120.970 171.172  0.00  0.00     0.000 C 
ATOM     21  C   UNL d   1     128.209 119.912 171.957  0.00  0.00     0.000 C 
BRANCH  20  22
ATOM     22  C   UNL d   1     130.489 120.560 171.035  0.00  0.00     0.000 C 
BRANCH  22  23
ATOM     23  C   UNL d   1     130.994 120.139 169.646  0.00  0.00     0.000 C 
BRANCH  23  24
ATOM     24  C   UNL d   1     132.476 120.407 169.353  0.00  0.00     0.000 C 
BRANCH  24  25
ATOM     25  C   UNL d   1     132.785 121.770 168.708  0.00  0.00     0.000 C 
ATOM     26  C   UNL d   1     131.542 122.394 168.066  0.00  0.00     0.000 C 
ATOM     27  C   UNL d   1     133.363 122.728 169.754  0.00  0.00     0.000 C 
ENDBRANCH  24  25
ENDBRANCH  23  24
ENDBRANCH  22  23
ENDBRANCH  20  22
ENDBRANCH   5  20
BRANCH  19  28
ATOM     28  O   UNL d   1     123.059 130.723 171.756  0.00  0.00    -0.385 OA
ATOM     29  H   UNL d   1     122.942 131.278 172.549  0.00  0.00     0.210 HD
ENDBRANCH  19  28
TORSDOF 6
ENDMDL
MODEL 9
REMARK VINA RESULT:    -8.335     12.132     13.784
REMARK INTER + INTRA:         -11.760
REMARK INTER:                 -10.951
REMARK INTRA:                  -0.809
REMARK UNBOUND:                -0.746
REMARK  6 active torsions:
REMARK  status: ('A' for Active; 'I' for Inactive)
REMARK    1  A    between atoms: O_1  and  C_22 
REMARK    2  A    between atoms: C_6  and  C_13 
REMARK    3  A    between atoms: C_13  and  C_21 
REMARK    4  A    between atoms: C_21  and  C_24 
REMARK    5  A    between atoms: C_24  and  C_25 
REMARK    6  A    between atoms: C_25  and  C_26 
ROOT
ATOM      1  C   UNL d   1     132.645 120.752 155.982  0.00  0.00     0.000 C 
ATOM      2  C   UNL d   1     131.746 119.501 156.156  0.00  0.00     0.000 C 
ATOM      3  C   UNL d   1     132.540 118.274 156.606  0.00  0.00     0.005 C 
ATOM      4  C   UNL d   1     133.222 118.559 157.975  0.00  0.00     0.004 C 
ATOM      5  C   UNL d   1     131.630 121.771 155.372  0.00  0.00     0.000 C 
ATOM      6  C   UNL d   1     133.122 121.099 157.406  0.00  0.00     0.000 C 
ATOM      7  C   UNL d   1     134.147 117.354 158.413  0.00  0.00     0.015 C 
ATOM      8  C   UNL d   1     130.982 119.419 154.847  0.00  0.00     0.000 C 
ATOM      9  C   UNL d   1     133.921 119.948 158.040  0.00  0.00     0.000 C 
ATOM     10  C   UNL d   1     130.676 120.882 154.518  0.00  0.00     0.000 C 
ATOM     11  C   UNL d   1     131.656 117.022 156.703  0.00  0.00     0.025 C 
ATOM     12  C   UNL d   1     133.838 120.489 155.030  0.00  0.00     0.000 C 
ATOM     13  C   UNL d   1     133.455 116.011 158.139  0.00  0.00    -0.047 C 
ATOM     14  C   UNL d   1     134.418 117.474 159.941  0.00  0.00     0.006 C 
ATOM     15  C   UNL d   1     132.341 115.889 157.400  0.00  0.00    -0.035 C 
ATOM     16  C   UNL d   1     135.494 117.373 157.649  0.00  0.00     0.004 C 
ATOM     17  C   UNL d   1     134.089 114.784 158.766  0.00  0.00     0.051 C 
ATOM     18  C   UNL d   1     135.097 116.249 160.556  0.00  0.00     0.030 C 
ATOM     19  C   UNL d   1     134.319 114.969 160.264  0.00  0.00     0.115 C 
ENDROOT
BRANCH   5  20
ATOM     20  C   UNL d   1     132.151 123.005 154.557  0.00  0.00     0.000 C 
ATOM     21  C   UNL d   1     132.119 124.308 155.365  0.00  0.00     0.000 C 
BRANCH  20  22
ATOM     22  C   UNL d   1     131.323 123.146 153.247  0.00  0.00     0.000 C 
BRANCH  22  23
ATOM     23  C   UNL d   1     131.827 124.130 152.182  0.00  0.00     0.000 C 
BRANCH  23  24
ATOM     24  C   UNL d   1     132.990 123.646 151.306  0.00  0.00     0.000 C 
BRANCH  24  25
ATOM     25  C   UNL d   1     133.685 124.736 150.470  0.00  0.00     0.000 C 
ATOM     26  C   UNL d   1     133.659 126.097 151.171  0.00  0.00     0.000 C 
ATOM     27  C   UNL d   1     135.133 124.331 150.179  0.00  0.00     0.000 C 
ENDBRANCH  24  25
ENDBRANCH  23  24
ENDBRANCH  22  23
ENDBRANCH  20  22
ENDBRANCH   5  20
BRANCH  19  28
ATOM     28  O   UNL d   1     135.050 113.848 160.759  0.00  0.00    -0.385 OA
ATOM     29  H   UNL d   1     135.963 114.145 160.923  0.00  0.00     0.210 HD
ENDBRANCH  19  28
TORSDOF 6
ENDMDL
MODEL 10
REMARK VINA RESULT:    -8.265     47.407     52.885
REMARK INTER + INTRA:         -11.668
REMARK INTER:                 -10.236
REMARK INTRA:                  -1.432
REMARK UNBOUND:                -0.746
REMARK  6 active torsions:
REMARK  status: ('A' for Active; 'I' for Inactive)
REMARK    1  A    between atoms: O_1  and  C_22 
REMARK    2  A    between atoms: C_6  and  C_13 
REMARK    3  A    between atoms: C_13  and  C_21 
REMARK    4  A    between atoms: C_21  and  C_24 
REMARK    5  A    between atoms: C_24  and  C_25 
REMARK    6  A    between atoms: C_25  and  C_26 
ROOT
ATOM      1  C   UNL d   1     144.533 136.937 110.292  0.00  0.00     0.000 C 
ATOM      2  C   UNL d   1     145.091 135.973 109.213  0.00  0.00     0.000 C 
ATOM      3  C   UNL d   1     143.990 135.411 108.312  0.00  0.00     0.005 C 
ATOM      4  C   UNL d   1     143.265 136.575 107.576  0.00  0.00     0.004 C 
ATOM      5  C   UNL d   1     145.813 137.210 111.143  0.00  0.00     0.000 C 
ATOM      6  C   UNL d   1     144.015 138.157 109.505  0.00  0.00     0.000 C 
ATOM      7  C   UNL d   1     142.044 136.038 106.726  0.00  0.00     0.015 C 
ATOM      8  C   UNL d   1     145.937 134.994 110.005  0.00  0.00     0.000 C 
ATOM      9  C   UNL d   1     142.909 137.769 108.507  0.00  0.00     0.000 C 
ATOM     10  C   UNL d   1     146.609 135.873 111.062  0.00  0.00     0.000 C 
ATOM     11  C   UNL d   1     144.541 134.401 107.295  0.00  0.00     0.025 C 
ATOM     12  C   UNL d   1     143.409 136.284 111.136  0.00  0.00     0.000 C 
ATOM     13  C   UNL d   1     142.424 134.749 105.984  0.00  0.00    -0.047 C 
ATOM     14  C   UNL d   1     141.662 137.124 105.677  0.00  0.00     0.006 C 
ATOM     15  C   UNL d   1     143.544 134.053 106.235  0.00  0.00    -0.035 C 
ATOM     16  C   UNL d   1     140.820 135.740 107.626  0.00  0.00     0.004 C 
ATOM     17  C   UNL d   1     141.461 134.278 104.910  0.00  0.00     0.051 C 
ATOM     18  C   UNL d   1     140.657 136.653 104.625  0.00  0.00     0.030 C 
ATOM     19  C   UNL d   1     141.137 135.390 103.915  0.00  0.00     0.115 C 
ENDROOT
BRANCH   5  20
ATOM     20  C   UNL d   1     145.678 137.712 112.623  0.00  0.00     0.000 C 
ATOM     21  C   UNL d   1     145.732 139.240 112.741  0.00  0.00     0.000 C 
BRANCH  20  22
ATOM     22  C   UNL d   1     146.785 137.050 113.495  0.00  0.00     0.000 C 
BRANCH  22  23
ATOM     23  C   UNL d   1     146.342 136.092 114.610  0.00  0.00     0.000 C 
BRANCH  23  24
ATOM     24  C   UNL d   1     145.122 135.212 114.306  0.00  0.00     0.000 C 
BRANCH  24  25
ATOM     25  C   UNL d   1     143.942 135.358 115.284  0.00  0.00     0.000 C 
ATOM     26  C   UNL d   1     143.468 136.810 115.394  0.00  0.00     0.000 C 
ATOM     27  C   UNL d   1     142.780 134.466 114.842  0.00  0.00     0.000 C 
ENDBRANCH  24  25
ENDBRANCH  23  24
ENDBRANCH  22  23
ENDBRANCH  20  22
ENDBRANCH   5  20
BRANCH  19  28
ATOM     28  O   UNL d   1     140.119 134.930 103.029  0.00  0.00    -0.385 OA
ATOM     29  H   UNL d   1     139.968 135.630 102.367  0.00  0.00     0.210 HD
ENDBRANCH  19  28
TORSDOF 6
ENDMDL
MODEL 11
REMARK VINA RESULT:    -8.072     37.972     40.904
REMARK INTER + INTRA:         -11.414
REMARK INTER:                 -10.080
REMARK INTRA:                  -1.333
REMARK UNBOUND:                -0.746
REMARK  6 active torsions:
REMARK  status: ('A' for Active; 'I' for Inactive)
REMARK    1  A    between atoms: O_1  and  C_22 
REMARK    2  A    between atoms: C_6  and  C_13 
REMARK    3  A    between atoms: C_13  and  C_21 
REMARK    4  A    between atoms: C_21  and  C_24 
REMARK    5  A    between atoms: C_24  and  C_25 
REMARK    6  A    between atoms: C_25  and  C_26 
ROOT
ATOM      1  C   UNL d   1     125.924 141.232 198.754  0.00  0.00     0.000 C 
ATOM      2  C   UNL d   1     125.119 141.139 197.432  0.00  0.00     0.000 C 
ATOM      3  C   UNL d   1     124.618 139.720 197.157  0.00  0.00     0.005 C 
ATOM      4  C   UNL d   1     123.685 139.257 198.313  0.00  0.00     0.004 C 
ATOM      5  C   UNL d   1     126.439 142.706 198.690  0.00  0.00     0.000 C 
ATOM      6  C   UNL d   1     124.893 140.963 199.867  0.00  0.00     0.000 C 
ATOM      7  C   UNL d   1     123.242 137.750 198.120  0.00  0.00     0.015 C 
ATOM      8  C   UNL d   1     126.030 141.787 196.406  0.00  0.00     0.000 C 
ATOM      9  C   UNL d   1     124.248 139.573 199.729  0.00  0.00     0.000 C 
ATOM     10  C   UNL d   1     126.647 142.963 197.167  0.00  0.00     0.000 C 
ATOM     11  C   UNL d   1     123.887 139.620 195.811  0.00  0.00     0.025 C 
ATOM     12  C   UNL d   1     127.093 140.216 198.802  0.00  0.00     0.000 C 
ATOM     13  C   UNL d   1     122.882 137.474 196.653  0.00  0.00    -0.047 C 
ATOM     14  C   UNL d   1     121.985 137.492 199.001  0.00  0.00     0.006 C 
ATOM     15  C   UNL d   1     123.155 138.325 195.650  0.00  0.00    -0.035 C 
ATOM     16  C   UNL d   1     124.372 136.776 198.536  0.00  0.00     0.004 C 
ATOM     17  C   UNL d   1     122.169 136.166 196.367  0.00  0.00     0.051 C 
ATOM     18  C   UNL d   1     121.299 136.151 198.735  0.00  0.00     0.030 C 
ATOM     19  C   UNL d   1     120.945 135.983 197.260  0.00  0.00     0.115 C 
ENDROOT
BRANCH   5  20
ATOM     20  C   UNL d   1     127.695 143.135 199.524  0.00  0.00     0.000 C 
ATOM     21  C   UNL d   1     127.349 144.090 200.673  0.00  0.00     0.000 C 
BRANCH  20  22
ATOM     22  C   UNL d   1     128.752 143.770 198.576  0.00  0.00     0.000 C 
BRANCH  22  23
ATOM     23  C   UNL d   1     130.091 143.037 198.399  0.00  0.00     0.000 C 
BRANCH  23  24
ATOM     24  C   UNL d   1     130.405 141.940 199.424  0.00  0.00     0.000 C 
BRANCH  24  25
ATOM     25  C   UNL d   1     131.540 142.265 200.411  0.00  0.00     0.000 C 
ATOM     26  C   UNL d   1     132.508 143.309 199.845  0.00  0.00     0.000 C 
ATOM     27  C   UNL d   1     130.959 142.764 201.736  0.00  0.00     0.000 C 
ENDBRANCH  24  25
ENDBRANCH  23  24
ENDBRANCH  22  23
ENDBRANCH  20  22
ENDBRANCH   5  20
BRANCH  19  28
ATOM     28  O   UNL d   1     120.414 134.676 197.048  0.00  0.00    -0.385 OA
ATOM     29  H   UNL d   1     120.590 134.436 196.120  0.00  0.00     0.210 HD
ENDBRANCH  19  28
TORSDOF 6
ENDMDL
MODEL 12
REMARK VINA RESULT:    -8.049     40.376     42.462
REMARK INTER + INTRA:         -11.383
REMARK INTER:                  -9.827
REMARK INTRA:                  -1.556
REMARK UNBOUND:                -0.746
REMARK  6 active torsions:
REMARK  status: ('A' for Active; 'I' for Inactive)
REMARK    1  A    between atoms: O_1  and  C_22 
REMARK    2  A    between atoms: C_6  and  C_13 
REMARK    3  A    between atoms: C_13  and  C_21 
REMARK    4  A    between atoms: C_21  and  C_24 
REMARK    5  A    between atoms: C_24  and  C_25 
REMARK    6  A    between atoms: C_25  and  C_26 
ROOT
ATOM      1  C   UNL d   1     125.042 138.961 199.749  0.00  0.00     0.000 C 
ATOM      2  C   UNL d   1     125.436 139.788 198.499  0.00  0.00     0.000 C 
ATOM      3  C   UNL d   1     126.513 140.829 198.808  0.00  0.00     0.005 C 
ATOM      4  C   UNL d   1     127.797 140.121 199.329  0.00  0.00     0.004 C 
ATOM      5  C   UNL d   1     123.844 138.126 199.194  0.00  0.00     0.000 C 
ATOM      6  C   UNL d   1     126.296 138.132 200.088  0.00  0.00     0.000 C 
ATOM      7  C   UNL d   1     128.891 141.176 199.769  0.00  0.00     0.015 C 
ATOM      8  C   UNL d   1     124.106 140.275 197.953  0.00  0.00     0.000 C 
ATOM      9  C   UNL d   1     127.509 139.026 200.397  0.00  0.00     0.000 C 
ATOM     10  C   UNL d   1     123.175 139.078 198.157  0.00  0.00     0.000 C 
ATOM     11  C   UNL d   1     126.843 141.694 197.583  0.00  0.00     0.025 C 
ATOM     12  C   UNL d   1     124.615 139.860 200.937  0.00  0.00     0.000 C 
ATOM     13  C   UNL d   1     128.978 142.324 198.754  0.00  0.00    -0.047 C 
ATOM     14  C   UNL d   1     130.269 140.455 199.830  0.00  0.00     0.006 C 
ATOM     15  C   UNL d   1     128.075 142.521 197.780  0.00  0.00    -0.035 C 
ATOM     16  C   UNL d   1     128.563 141.778 201.158  0.00  0.00     0.004 C 
ATOM     17  C   UNL d   1     130.169 143.253 198.884  0.00  0.00     0.051 C 
ATOM     18  C   UNL d   1     131.461 141.398 200.006  0.00  0.00     0.030 C 
ATOM     19  C   UNL d   1     131.486 142.481 198.931  0.00  0.00     0.115 C 
ENDROOT
BRANCH   5  20
ATOM     20  C   UNL d   1     122.789 137.516 200.181  0.00  0.00     0.000 C 
ATOM     21  C   UNL d   1     123.041 136.033 200.479  0.00  0.00     0.000 C 
BRANCH  20  22
ATOM     22  C   UNL d   1     121.359 137.729 199.604  0.00  0.00     0.000 C 
BRANCH  22  23
ATOM     23  C   UNL d   1     120.333 138.461 200.483  0.00  0.00     0.000 C 
BRANCH  23  24
ATOM     24  C   UNL d   1     120.896 139.246 201.674  0.00  0.00     0.000 C 
BRANCH  24  25
ATOM     25  C   UNL d   1     121.083 140.756 201.440  0.00  0.00     0.000 C 
ATOM     26  C   UNL d   1     120.543 141.194 200.075  0.00  0.00     0.000 C 
ATOM     27  C   UNL d   1     120.389 141.550 202.550  0.00  0.00     0.000 C 
ENDBRANCH  24  25
ENDBRANCH  23  24
ENDBRANCH  22  23
ENDBRANCH  20  22
ENDBRANCH   5  20
BRANCH  19  28
ATOM     28  O   UNL d   1     132.545 143.395 199.205  0.00  0.00    -0.385 OA
ATOM     29  H   UNL d   1     133.385 142.922 199.061  0.00  0.00     0.210 HD
ENDBRANCH  19  28
TORSDOF 6
ENDMDL
MODEL 13
REMARK VINA RESULT:    -8.019     14.326     16.605
REMARK INTER + INTRA:         -11.343
REMARK INTER:                  -9.705
REMARK INTRA:                  -1.638
REMARK UNBOUND:                -0.746
REMARK  6 active torsions:
REMARK  status: ('A' for Active; 'I' for Inactive)
REMARK    1  A    between atoms: O_1  and  C_22 
REMARK    2  A    between atoms: C_6  and  C_13 
REMARK    3  A    between atoms: C_13  and  C_21 
REMARK    4  A    between atoms: C_21  and  C_24 
REMARK    5  A    between atoms: C_24  and  C_25 
REMARK    6  A    between atoms: C_25  and  C_26 
ROOT
ATOM      1  C   UNL d   1     128.244 125.004 172.347  0.00  0.00     0.000 C 
ATOM      2  C   UNL d   1     128.034 123.611 172.994  0.00  0.00     0.000 C 
ATOM      3  C   UNL d   1     128.321 122.469 172.018  0.00  0.00     0.005 C 
ATOM      4  C   UNL d   1     129.798 122.547 171.534  0.00  0.00     0.004 C 
ATOM      5  C   UNL d   1     127.729 125.945 173.482  0.00  0.00     0.000 C 
ATOM      6  C   UNL d   1     129.759 125.093 172.080  0.00  0.00     0.000 C 
ATOM      7  C   UNL d   1     130.096 121.450 170.433  0.00  0.00     0.015 C 
ATOM      8  C   UNL d   1     126.647 123.699 173.603  0.00  0.00     0.000 C 
ATOM      9  C   UNL d   1     130.242 123.983 171.131  0.00  0.00     0.000 C 
ATOM     10  C   UNL d   1     126.590 125.124 174.160  0.00  0.00     0.000 C 
ATOM     11  C   UNL d   1     128.039 121.095 172.643  0.00  0.00     0.025 C 
ATOM     12  C   UNL d   1     127.425 125.174 171.043  0.00  0.00     0.000 C 
ATOM     13  C   UNL d   1     129.461 120.107 170.819  0.00  0.00    -0.047 C 
ATOM     14  C   UNL d   1     131.638 121.264 170.333  0.00  0.00     0.006 C 
ATOM     15  C   UNL d   1     128.570 119.967 171.815  0.00  0.00    -0.035 C 
ATOM     16  C   UNL d   1     129.539 121.875 169.052  0.00  0.00     0.004 C 
ATOM     17  C   UNL d   1     129.898 118.897 170.016  0.00  0.00     0.051 C 
ATOM     18  C   UNL d   1     132.070 120.066 169.485  0.00  0.00     0.030 C 
ATOM     19  C   UNL d   1     131.419 118.772 169.966  0.00  0.00     0.115 C 
ENDROOT
BRANCH   5  20
ATOM     20  C   UNL d   1     127.264 127.403 173.142  0.00  0.00     0.000 C 
ATOM     21  C   UNL d   1     128.386 128.437 173.299  0.00  0.00     0.000 C 
BRANCH  20  22
ATOM     22  C   UNL d   1     126.040 127.775 174.028  0.00  0.00     0.000 C 
BRANCH  22  23
ATOM     23  C   UNL d   1     124.757 128.238 173.322  0.00  0.00     0.000 C 
BRANCH  23  24
ATOM     24  C   UNL d   1     123.551 127.295 173.417  0.00  0.00     0.000 C 
BRANCH  24  25
ATOM     25  C   UNL d   1     123.218 126.518 172.131  0.00  0.00     0.000 C 
ATOM     26  C   UNL d   1     124.122 126.928 170.965  0.00  0.00     0.000 C 
ATOM     27  C   UNL d   1     123.343 125.012 172.379  0.00  0.00     0.000 C 
ENDBRANCH  24  25
ENDBRANCH  23  24
ENDBRANCH  22  23
ENDBRANCH  20  22
ENDBRANCH   5  20
BRANCH  19  28
ATOM     28  O   UNL d   1     131.764 117.711 169.077  0.00  0.00    -0.385 OA
ATOM     29  H   UNL d   1     131.125 117.728 168.340  0.00  0.00     0.210 HD
ENDBRANCH  19  28
TORSDOF 6
ENDMDL
MODEL 14
REMARK VINA RESULT:    -8.016     14.623     15.842
REMARK INTER + INTRA:         -11.339
REMARK INTER:                 -10.198
REMARK INTRA:                  -1.141
REMARK UNBOUND:                -0.746
REMARK  6 active torsions:
REMARK  status: ('A' for Active; 'I' for Inactive)
REMARK    1  A    between atoms: O_1  and  C_22 
REMARK    2  A    between atoms: C_6  and  C_13 
REMARK    3  A    between atoms: C_13  and  C_21 
REMARK    4  A    between atoms: C_21  and  C_24 
REMARK    5  A    between atoms: C_24  and  C_25 
REMARK    6  A    between atoms: C_25  and  C_26 
ROOT
ATOM      1  C   UNL d   1     130.096 123.601 171.056  0.00  0.00     0.000 C 
ATOM      2  C   UNL d   1     128.689 123.790 170.434  0.00  0.00     0.000 C 
ATOM      3  C   UNL d   1     127.687 124.372 171.433  0.00  0.00     0.005 C 
ATOM      4  C   UNL d   1     128.178 125.765 171.922  0.00  0.00     0.004 C 
ATOM      5  C   UNL d   1     130.839 122.857 169.901  0.00  0.00     0.000 C 
ATOM      6  C   UNL d   1     130.606 125.030 171.328  0.00  0.00     0.000 C 
ATOM      7  C   UNL d   1     127.225 126.344 173.045  0.00  0.00     0.015 C 
ATOM      8  C   UNL d   1     128.381 122.439 169.817  0.00  0.00     0.000 C 
ATOM      9  C   UNL d   1     129.688 125.791 172.300  0.00  0.00     0.000 C 
ATOM     10  C   UNL d   1     129.725 121.996 169.233  0.00  0.00     0.000 C 
ATOM     11  C   UNL d   1     126.279 124.486 170.832  0.00  0.00     0.025 C 
ATOM     12  C   UNL d   1     130.056 122.754 172.353  0.00  0.00     0.000 C 
ATOM     13  C   UNL d   1     125.753 126.107 172.681  0.00  0.00    -0.047 C 
ATOM     14  C   UNL d   1     127.474 127.876 173.156  0.00  0.00     0.006 C 
ATOM     15  C   UNL d   1     125.356 125.300 171.684  0.00  0.00    -0.035 C 
ATOM     16  C   UNL d   1     127.502 125.677 174.415  0.00  0.00     0.004 C 
ATOM     17  C   UNL d   1     124.724 126.854 173.508  0.00  0.00     0.051 C 
ATOM     18  C   UNL d   1     126.456 128.614 174.028  0.00  0.00     0.030 C 
ATOM     19  C   UNL d   1     125.025 128.350 173.568  0.00  0.00     0.115 C 
ENDROOT
BRANCH   5  20
ATOM     20  C   UNL d   1     132.118 122.005 170.211  0.00  0.00     0.000 C 
ATOM     21  C   UNL d   1     133.419 122.726 169.840  0.00  0.00     0.000 C 
BRANCH  20  22
ATOM     22  C   UNL d   1     132.016 120.636 169.479  0.00  0.00     0.000 C 
BRANCH  22  23
ATOM     23  C   UNL d   1     131.397 119.456 170.244  0.00  0.00     0.000 C 
BRANCH  23  24
ATOM     24  C   UNL d   1     130.909 118.277 169.394  0.00  0.00     0.000 C 
BRANCH  24  25
ATOM     25  C   UNL d   1     129.383 118.079 169.354  0.00  0.00     0.000 C 
ATOM     26  C   UNL d   1     128.688 118.750 170.543  0.00  0.00     0.000 C 
ATOM     27  C   UNL d   1     128.815 118.633 168.044  0.00  0.00     0.000 C 
ENDBRANCH  24  25
ENDBRANCH  23  24
ENDBRANCH  22  23
ENDBRANCH  20  22
ENDBRANCH   5  20
BRANCH  19  28
ATOM     28  O   UNL d   1     124.115 128.965 174.479  0.00  0.00    -0.385 OA
ATOM     29  H   UNL d   1     123.279 128.466 174.439  0.00  0.00     0.210 HD
ENDBRANCH  19  28
TORSDOF 6
ENDMDL
MODEL 15
REMARK VINA RESULT:    -7.989     53.413     58.778
REMARK INTER + INTRA:         -11.303
REMARK INTER:                 -10.257
REMARK INTRA:                  -1.046
REMARK UNBOUND:                -0.746
REMARK  6 active torsions:
REMARK  status: ('A' for Active; 'I' for Inactive)
REMARK    1  A    between atoms: O_1  and  C_22 
REMARK    2  A    between atoms: C_6  and  C_13 
REMARK    3  A    between atoms: C_13  and  C_21 
REMARK    4  A    between atoms: C_21  and  C_24 
REMARK    5  A    between atoms: C_24  and  C_25 
REMARK    6  A    between atoms: C_25  and  C_26 
ROOT
ATOM      1  C   UNL d   1     161.481 105.532 120.605  0.00  0.00     0.000 C 
ATOM      2  C   UNL d   1     161.535 106.318 119.270  0.00  0.00     0.000 C 
ATOM      3  C   UNL d   1     162.730 105.912 118.406  0.00  0.00     0.005 C 
ATOM      4  C   UNL d   1     162.640 104.398 118.059  0.00  0.00     0.004 C 
ATOM      5  C   UNL d   1     160.301 106.252 121.332  0.00  0.00     0.000 C 
ATOM      6  C   UNL d   1     161.187 104.075 120.196  0.00  0.00     0.000 C 
ATOM      7  C   UNL d   1     163.921 103.918 117.264  0.00  0.00     0.015 C 
ATOM      8  C   UNL d   1     161.423 107.769 119.699  0.00  0.00     0.000 C 
ATOM      9  C   UNL d   1     162.283 103.503 119.281  0.00  0.00     0.000 C 
ATOM     10  C   UNL d   1     160.404 107.728 120.841  0.00  0.00     0.000 C 
ATOM     11  C   UNL d   1     162.819 106.747 117.120  0.00  0.00     0.025 C 
ATOM     12  C   UNL d   1     162.803 105.644 121.405  0.00  0.00     0.000 C 
ATOM     13  C   UNL d   1     164.318 104.951 116.200  0.00  0.00    -0.047 C 
ATOM     14  C   UNL d   1     163.583 102.574 116.555  0.00  0.00     0.006 C 
ATOM     15  C   UNL d   1     163.801 106.189 116.140  0.00  0.00    -0.035 C 
ATOM     16  C   UNL d   1     165.126 103.710 118.215  0.00  0.00     0.004 C 
ATOM     17  C   UNL d   1     165.342 104.505 115.174  0.00  0.00     0.051 C 
ATOM     18  C   UNL d   1     164.643 102.110 115.555  0.00  0.00     0.030 C 
ATOM     19  C   UNL d   1     164.943 103.186 114.514  0.00  0.00     0.115 C 
ENDROOT
BRANCH   5  20
ATOM     20  C   UNL d   1     160.174 106.171 122.892  0.00  0.00     0.000 C 
ATOM     21  C   UNL d   1     158.767 105.777 123.356  0.00  0.00     0.000 C 
BRANCH  20  22
ATOM     22  C   UNL d   1     160.601 107.532 123.516  0.00  0.00     0.000 C 
BRANCH  22  23
ATOM     23  C   UNL d   1     159.620 108.221 124.476  0.00  0.00     0.000 C 
BRANCH  23  24
ATOM     24  C   UNL d   1     159.639 109.754 124.481  0.00  0.00     0.000 C 
BRANCH  24  25
ATOM     25  C   UNL d   1     158.700 110.430 123.465  0.00  0.00     0.000 C 
ATOM     26  C   UNL d   1     157.422 109.617 123.241  0.00  0.00     0.000 C 
ATOM     27  C   UNL d   1     158.341 111.841 123.938  0.00  0.00     0.000 C 
ENDBRANCH  24  25
ENDBRANCH  23  24
ENDBRANCH  22  23
ENDBRANCH  20  22
ENDBRANCH   5  20
BRANCH  19  28
ATOM     28  O   UNL d   1     166.013 102.749 113.678  0.00  0.00    -0.385 OA
ATOM     29  H   UNL d   1     165.904 103.184 112.813  0.00  0.00     0.210 HD
ENDBRANCH  19  28
TORSDOF 6
ENDMDL
MODEL 16
REMARK VINA RESULT:    -7.972     32.214     36.747
REMARK INTER + INTRA:         -11.281
REMARK INTER:                  -9.664
REMARK INTRA:                  -1.617
REMARK UNBOUND:                -0.746
REMARK  6 active torsions:
REMARK  status: ('A' for Active; 'I' for Inactive)
REMARK    1  A    between atoms: O_1  and  C_22 
REMARK    2  A    between atoms: C_6  and  C_13 
REMARK    3  A    between atoms: C_13  and  C_21 
REMARK    4  A    between atoms: C_21  and  C_24 
REMARK    5  A    between atoms: C_24  and  C_25 
REMARK    6  A    between atoms: C_25  and  C_26 
ROOT
ATOM      1  C   UNL d   1     105.923 146.467 184.820  0.00  0.00     0.000 C 
ATOM      2  C   UNL d   1     106.613 147.844 184.643  0.00  0.00     0.000 C 
ATOM      3  C   UNL d   1     107.635 147.838 183.505  0.00  0.00     0.005 C 
ATOM      4  C   UNL d   1     106.929 147.488 182.164  0.00  0.00     0.004 C 
ATOM      5  C   UNL d   1     105.088 146.712 186.117  0.00  0.00     0.000 C 
ATOM      6  C   UNL d   1     105.080 146.278 183.543  0.00  0.00     0.000 C 
ATOM      7  C   UNL d   1     107.976 147.358 180.985  0.00  0.00     0.015 C 
ATOM      8  C   UNL d   1     107.099 148.188 186.039  0.00  0.00     0.000 C 
ATOM      9  C   UNL d   1     105.951 146.283 182.275  0.00  0.00     0.000 C 
ATOM     10  C   UNL d   1     105.964 147.702 186.944  0.00  0.00     0.000 C 
ATOM     11  C   UNL d   1     108.368 149.182 183.385  0.00  0.00     0.025 C 
ATOM     12  C   UNL d   1     106.945 145.317 185.003  0.00  0.00     0.000 C 
ATOM     13  C   UNL d   1     109.019 148.482 181.059  0.00  0.00    -0.047 C 
ATOM     14  C   UNL d   1     107.210 147.475 179.634  0.00  0.00     0.006 C 
ATOM     15  C   UNL d   1     109.160 149.293 182.121  0.00  0.00    -0.035 C 
ATOM     16  C   UNL d   1     108.718 146.000 181.040  0.00  0.00     0.004 C 
ATOM     17  C   UNL d   1     109.909 148.660 179.844  0.00  0.00     0.051 C 
ATOM     18  C   UNL d   1     108.117 147.610 178.410  0.00  0.00     0.030 C 
ATOM     19  C   UNL d   1     109.093 148.775 178.558  0.00  0.00     0.115 C 
ENDROOT
BRANCH   5  20
ATOM     20  C   UNL d   1     104.615 145.497 186.987  0.00  0.00     0.000 C 
ATOM     21  C   UNL d   1     103.139 145.594 187.393  0.00  0.00     0.000 C 
BRANCH  20  22
ATOM     22  C   UNL d   1     105.527 145.374 188.242  0.00  0.00     0.000 C 
BRANCH  22  23
ATOM     23  C   UNL d   1     106.209 144.023 188.505  0.00  0.00     0.000 C 
BRANCH  23  24
ATOM     24  C   UNL d   1     107.742 144.034 188.553  0.00  0.00     0.000 C 
BRANCH  24  25
ATOM     25  C   UNL d   1     108.397 145.420 188.409  0.00  0.00     0.000 C 
ATOM     26  C   UNL d   1     108.945 145.934 189.744  0.00  0.00     0.000 C 
ATOM     27  C   UNL d   1     109.524 145.364 187.374  0.00  0.00     0.000 C 
ENDBRANCH  24  25
ENDBRANCH  23  24
ENDBRANCH  22  23
ENDBRANCH  20  22
ENDBRANCH   5  20
BRANCH  19  28
ATOM     28  O   UNL d   1     109.987 148.787 177.447  0.00  0.00    -0.385 OA
ATOM     29  H   UNL d   1     110.366 147.892 177.367  0.00  0.00     0.210 HD
ENDBRANCH  19  28
TORSDOF 6
ENDMDL
MODEL 17
REMARK VINA RESULT:    -7.959     13.674     17.014
REMARK INTER + INTRA:         -11.264
REMARK INTER:                  -9.584
REMARK INTRA:                  -1.680
REMARK UNBOUND:                -0.746
REMARK  6 active torsions:
REMARK  status: ('A' for Active; 'I' for Inactive)
REMARK    1  A    between atoms: O_1  and  C_22 
REMARK    2  A    between atoms: C_6  and  C_13 
REMARK    3  A    between atoms: C_13  and  C_21 
REMARK    4  A    between atoms: C_21  and  C_24 
REMARK    5  A    between atoms: C_24  and  C_25 
REMARK    6  A    between atoms: C_25  and  C_26 
ROOT
ATOM      1  C   UNL d   1     129.222 122.514 171.415  0.00  0.00     0.000 C 
ATOM      2  C   UNL d   1     128.791 121.256 172.211  0.00  0.00     0.000 C 
ATOM      3  C   UNL d   1     128.673 120.018 171.320  0.00  0.00     0.005 C 
ATOM      4  C   UNL d   1     130.048 119.711 170.660  0.00  0.00     0.004 C 
ATOM      5  C   UNL d   1     129.096 123.622 172.509  0.00  0.00     0.000 C 
ATOM      6  C   UNL d   1     130.667 122.223 170.963  0.00  0.00     0.000 C 
ATOM      7  C   UNL d   1     129.934 118.506 169.641  0.00  0.00     0.015 C 
ATOM      8  C   UNL d   1     127.558 121.712 172.969  0.00  0.00     0.000 C 
ATOM      9  C   UNL d   1     130.748 120.970 170.073  0.00  0.00     0.000 C 
ATOM     10  C   UNL d   1     127.904 123.142 173.391  0.00  0.00     0.000 C 
ATOM     11  C   UNL d   1     128.174 118.795 172.102  0.00  0.00     0.025 C 
ATOM     12  C   UNL d   1     128.292 122.791 170.206  0.00  0.00     0.000 C 
ATOM     13  C   UNL d   1     129.068 117.381 170.224  0.00  0.00    -0.047 C 
ATOM     14  C   UNL d   1     131.364 117.951 169.377  0.00  0.00     0.006 C 
ATOM     15  C   UNL d   1     128.315 117.522 171.327  0.00  0.00    -0.035 C 
ATOM     16  C   UNL d   1     129.304 118.962 168.301  0.00  0.00     0.004 C 
ATOM     17  C   UNL d   1     129.104 116.052 169.494  0.00  0.00     0.051 C 
ATOM     18  C   UNL d   1     131.391 116.633 168.600  0.00  0.00     0.030 C 
ATOM     19  C   UNL d   1     130.534 115.565 169.275  0.00  0.00     0.115 C 
ENDROOT
BRANCH   5  20
ATOM     20  C   UNL d   1     128.934 125.124 172.089  0.00  0.00     0.000 C 
ATOM     21  C   UNL d   1     130.241 125.918 172.203  0.00  0.00     0.000 C 
BRANCH  20  22
ATOM     22  C   UNL d   1     127.811 125.780 172.944  0.00  0.00     0.000 C 
BRANCH  22  23
ATOM     23  C   UNL d   1     126.510 126.183 172.233  0.00  0.00     0.000 C 
BRANCH  23  24
ATOM     24  C   UNL d   1     126.408 125.818 170.747  0.00  0.00     0.000 C 
BRANCH  24  25
ATOM     25  C   UNL d   1     125.151 125.025 170.347  0.00  0.00     0.000 C 
ATOM     26  C   UNL d   1     125.278 124.423 168.944  0.00  0.00     0.000 C 
ATOM     27  C   UNL d   1     124.885 123.912 171.364  0.00  0.00     0.000 C 
ENDBRANCH  24  25
ENDBRANCH  23  24
ENDBRANCH  22  23
ENDBRANCH  20  22
ENDBRANCH   5  20
BRANCH  19  28
ATOM     28  O   UNL d   1     130.502 114.398 168.456  0.00  0.00    -0.385 OA
ATOM     29  H   UNL d   1     129.791 113.823 168.794  0.00  0.00     0.210 HD
ENDBRANCH  19  28
TORSDOF 6
ENDMDL
MODEL 18
REMARK VINA RESULT:    -7.957     31.294     35.299
REMARK INTER + INTRA:         -11.261
REMARK INTER:                 -10.090
REMARK INTRA:                  -1.172
REMARK UNBOUND:                -0.746
REMARK  6 active torsions:
REMARK  status: ('A' for Active; 'I' for Inactive)
REMARK    1  A    between atoms: O_1  and  C_22 
REMARK    2  A    between atoms: C_6  and  C_13 
REMARK    3  A    between atoms: C_13  and  C_21 
REMARK    4  A    between atoms: C_21  and  C_24 
REMARK    5  A    between atoms: C_24  and  C_25 
REMARK    6  A    between atoms: C_25  and  C_26 
ROOT
ATOM      1  C   UNL d   1     132.984 112.111 129.046  0.00  0.00     0.000 C 
ATOM      2  C   UNL d   1     133.348 112.820 130.376  0.00  0.00     0.000 C 
ATOM      3  C   UNL d   1     132.227 112.722 131.412  0.00  0.00     0.005 C 
ATOM      4  C   UNL d   1     131.937 111.229 131.737  0.00  0.00     0.004 C 
ATOM      5  C   UNL d   1     134.199 112.508 128.149  0.00  0.00     0.000 C 
ATOM      6  C   UNL d   1     132.912 110.613 129.401  0.00  0.00     0.000 C 
ATOM      7  C   UNL d   1     130.703 111.087 132.716  0.00  0.00     0.015 C 
ATOM      8  C   UNL d   1     133.800 114.201 129.939  0.00  0.00     0.000 C 
ATOM      9  C   UNL d   1     131.846 110.327 130.472  0.00  0.00     0.000 C 
ATOM     10  C   UNL d   1     134.588 113.931 128.654  0.00  0.00     0.000 C 
ATOM     11  C   UNL d   1     132.565 113.490 132.698  0.00  0.00     0.025 C 
ATOM     12  C   UNL d   1     131.644 112.622 128.458  0.00  0.00     0.000 C 
ATOM     13  C   UNL d   1     130.772 112.140 133.832  0.00  0.00    -0.047 C 
ATOM     14  C   UNL d   1     130.750 109.671 133.361  0.00  0.00     0.006 C 
ATOM     15  C   UNL d   1     131.619 113.182 133.816  0.00  0.00    -0.035 C 
ATOM     16  C   UNL d   1     129.363 111.265 131.961  0.00  0.00     0.004 C 
ATOM     17  C   UNL d   1     129.826 111.949 135.001  0.00  0.00     0.051 C 
ATOM     18  C   UNL d   1     129.760 109.474 134.511  0.00  0.00     0.030 C 
ATOM     19  C   UNL d   1     129.929 110.543 135.588  0.00  0.00     0.115 C 
ENDROOT
BRANCH   5  20
ATOM     20  C   UNL d   1     134.069 112.467 126.588  0.00  0.00     0.000 C 
ATOM     21  C   UNL d   1     135.213 111.699 125.915  0.00  0.00     0.000 C 
BRANCH  20  22
ATOM     22  C   UNL d   1     133.979 113.920 126.038  0.00  0.00     0.000 C 
BRANCH  22  23
ATOM     23  C   UNL d   1     132.828 114.254 125.077  0.00  0.00     0.000 C 
BRANCH  23  24
ATOM     24  C   UNL d   1     131.980 113.070 124.596  0.00  0.00     0.000 C 
BRANCH  24  25
ATOM     25  C   UNL d   1     132.009 112.810 123.079  0.00  0.00     0.000 C 
ATOM     26  C   UNL d   1     132.792 111.541 122.731  0.00  0.00     0.000 C 
ATOM     27  C   UNL d   1     130.581 112.702 122.537  0.00  0.00     0.000 C 
ENDBRANCH  24  25
ENDBRANCH  23  24
ENDBRANCH  22  23
ENDBRANCH  20  22
ENDBRANCH   5  20
BRANCH  19  28
ATOM     28  O   UNL d   1     128.913 110.382 136.577  0.00  0.00    -0.385 OA
ATOM     29  H   UNL d   1     128.755 109.426 136.681  0.00  0.00     0.210 HD
ENDBRANCH  19  28
TORSDOF 6
ENDMDL
MODEL 19
REMARK VINA RESULT:    -7.850     31.518     35.289
REMARK INTER + INTRA:         -11.120
REMARK INTER:                  -9.765
REMARK INTRA:                  -1.356
REMARK UNBOUND:                -0.746
REMARK  6 active torsions:
REMARK  status: ('A' for Active; 'I' for Inactive)
REMARK    1  A    between atoms: O_1  and  C_22 
REMARK    2  A    between atoms: C_6  and  C_13 
REMARK    3  A    between atoms: C_13  and  C_21 
REMARK    4  A    between atoms: C_21  and  C_24 
REMARK    5  A    between atoms: C_24  and  C_25 
REMARK    6  A    between atoms: C_25  and  C_26 
ROOT
ATOM      1  C   UNL d   1     155.437 137.941 137.264  0.00  0.00     0.000 C 
ATOM      2  C   UNL d   1     154.054 137.689 137.917  0.00  0.00     0.000 C 
ATOM      3  C   UNL d   1     154.053 138.005 139.413  0.00  0.00     0.005 C 
ATOM      4  C   UNL d   1     154.414 139.502 139.636  0.00  0.00     0.004 C 
ATOM      5  C   UNL d   1     155.196 137.388 135.823  0.00  0.00     0.000 C 
ATOM      6  C   UNL d   1     155.639 139.468 137.338  0.00  0.00     0.000 C 
ATOM      7  C   UNL d   1     154.537 139.835 141.178  0.00  0.00     0.015 C 
ATOM      8  C   UNL d   1     153.701 136.278 137.483  0.00  0.00     0.000 C 
ATOM      9  C   UNL d   1     155.629 139.978 138.789  0.00  0.00     0.000 C 
ATOM     10  C   UNL d   1     154.195 136.213 136.036  0.00  0.00     0.000 C 
ATOM     11  C   UNL d   1     152.702 137.681 140.067  0.00  0.00     0.025 C 
ATOM     12  C   UNL d   1     156.576 137.181 137.989  0.00  0.00     0.000 C 
ATOM     13  C   UNL d   1     153.403 139.168 141.970  0.00  0.00    -0.047 C 
ATOM     14  C   UNL d   1     154.432 141.377 141.356  0.00  0.00     0.006 C 
ATOM     15  C   UNL d   1     152.587 138.235 141.452  0.00  0.00    -0.035 C 
ATOM     16  C   UNL d   1     155.888 139.341 141.753  0.00  0.00     0.004 C 
ATOM     17  C   UNL d   1     153.219 139.626 143.404  0.00  0.00     0.051 C 
ATOM     18  C   UNL d   1     154.292 141.832 142.810  0.00  0.00     0.030 C 
ATOM     19  C   UNL d   1     153.117 141.147 143.503  0.00  0.00     0.115 C 
ENDROOT
BRANCH   5  20
ATOM     20  C   UNL d   1     156.414 136.955 134.935  0.00  0.00     0.000 C 
ATOM     21  C   UNL d   1     157.227 138.147 134.416  0.00  0.00     0.000 C 
BRANCH  20  22
ATOM     22  C   UNL d   1     155.906 136.076 133.756  0.00  0.00     0.000 C 
BRANCH  22  23
ATOM     23  C   UNL d   1     156.612 134.735 133.504  0.00  0.00     0.000 C 
BRANCH  23  24
ATOM     24  C   UNL d   1     156.402 133.647 134.564  0.00  0.00     0.000 C 
BRANCH  24  25
ATOM     25  C   UNL d   1     157.655 133.260 135.370  0.00  0.00     0.000 C 
ATOM     26  C   UNL d   1     158.945 133.594 134.615  0.00  0.00     0.000 C 
ATOM     27  C   UNL d   1     157.650 133.971 136.726  0.00  0.00     0.000 C 
ENDBRANCH  24  25
ENDBRANCH  23  24
ENDBRANCH  22  23
ENDBRANCH  20  22
ENDBRANCH   5  20
BRANCH  19  28
ATOM     28  O   UNL d   1     153.099 141.517 144.880  0.00  0.00    -0.385 OA
ATOM     29  H   UNL d   1     152.370 141.028 145.305  0.00  0.00     0.210 HD
ENDBRANCH  19  28
TORSDOF 6
ENDMDL
MODEL 20
REMARK VINA RESULT:    -7.839     39.025     41.636
REMARK INTER + INTRA:         -11.105
REMARK INTER:                 -10.170
REMARK INTRA:                  -0.935
REMARK UNBOUND:                -0.746
REMARK  6 active torsions:
REMARK  status: ('A' for Active; 'I' for Inactive)
REMARK    1  A    between atoms: O_1  and  C_22 
REMARK    2  A    between atoms: C_6  and  C_13 
REMARK    3  A    between atoms: C_13  and  C_21 
REMARK    4  A    between atoms: C_21  and  C_24 
REMARK    5  A    between atoms: C_24  and  C_25 
REMARK    6  A    between atoms: C_25  and  C_26 
ROOT
ATOM      1  C   UNL d   1     126.810 141.516 198.479  0.00  0.00     0.000 C 
ATOM      2  C   UNL d   1     125.947 140.716 197.469  0.00  0.00     0.000 C 
ATOM      3  C   UNL d   1     124.963 139.775 198.165  0.00  0.00     0.005 C 
ATOM      4  C   UNL d   1     123.996 140.595 199.067  0.00  0.00     0.004 C 
ATOM      5  C   UNL d   1     127.806 142.240 197.518  0.00  0.00     0.000 C 
ATOM      6  C   UNL d   1     125.817 142.453 199.195  0.00  0.00     0.000 C 
ATOM      7  C   UNL d   1     123.041 139.642 199.893  0.00  0.00     0.015 C 
ATOM      8  C   UNL d   1     126.965 140.112 196.521  0.00  0.00     0.000 C 
ATOM      9  C   UNL d   1     124.718 141.669 199.932  0.00  0.00     0.000 C 
ATOM     10  C   UNL d   1     128.001 141.226 196.350  0.00  0.00     0.000 C 
ATOM     11  C   UNL d   1     124.165 138.933 197.159  0.00  0.00     0.025 C 
ATOM     12  C   UNL d   1     127.546 140.592 199.481  0.00  0.00     0.000 C 
ATOM     13  C   UNL d   1     122.520 138.499 199.011  0.00  0.00    -0.047 C 
ATOM     14  C   UNL d   1     121.828 140.479 200.394  0.00  0.00     0.006 C 
ATOM     15  C   UNL d   1     123.015 138.216 197.795  0.00  0.00    -0.035 C 
ATOM     16  C   UNL d   1     123.776 139.025 201.108  0.00  0.00     0.004 C 
ATOM     17  C   UNL d   1     121.377 137.677 199.575  0.00  0.00     0.051 C 
ATOM     18  C   UNL d   1     120.699 139.645 201.001  0.00  0.00     0.030 C 
ATOM     19  C   UNL d   1     120.221 138.560 200.039  0.00  0.00     0.115 C 
ENDROOT
BRANCH   5  20
ATOM     20  C   UNL d   1     129.180 142.764 198.062  0.00  0.00     0.000 C 
ATOM     21  C   UNL d   1     129.535 144.159 197.535  0.00  0.00     0.000 C 
BRANCH  20  22
ATOM     22  C   UNL d   1     130.298 141.739 197.713  0.00  0.00     0.000 C 
BRANCH  22  23
ATOM     23  C   UNL d   1     131.686 141.952 198.336  0.00  0.00     0.000 C 
BRANCH  23  24
ATOM     24  C   UNL d   1     131.727 142.747 199.647  0.00  0.00     0.000 C 
BRANCH  24  25
ATOM     25  C   UNL d   1     131.408 141.940 200.919  0.00  0.00     0.000 C 
ATOM     26  C   UNL d   1     132.551 142.001 201.936  0.00  0.00     0.000 C 
ATOM     27  C   UNL d   1     130.116 142.456 201.559  0.00  0.00     0.000 C 
ENDBRANCH  24  25
ENDBRANCH  23  24
ENDBRANCH  22  23
ENDBRANCH  20  22
ENDBRANCH   5  20
BRANCH  19  28
ATOM     28  O   UNL d   1     119.252 137.742 200.693  0.00  0.00    -0.385 OA
ATOM     29  H   UNL d   1     118.904 138.249 201.449  0.00  0.00     0.210 HD
ENDBRANCH  19  28
TORSDOF 6
ENDMDL
