MODEL 1
REMARK VINA RESULT:    -9.490      0.000      0.000
REMARK INTER + INTRA:         -13.272
REMARK INTER:                 -12.541
REMARK INTRA:                  -0.730
REMARK UNBOUND:                -0.730
REMARK  6 active torsions:
REMARK  status: ('A' for Active; 'I' for Inactive)
REMARK    1  A    between atoms: O_1  and  C_22 
REMARK    2  A    between atoms: C_6  and  C_13 
REMARK    3  A    between atoms: C_13  and  C_21 
REMARK    4  A    between atoms: C_21  and  C_24 
REMARK    5  A    between atoms: C_24  and  C_25 
REMARK    6  A    between atoms: C_25  and  C_26 
ROOT
ATOM      1  C   UNL d   1     128.097 131.409 158.268  0.00  0.00     0.000 C 
ATOM      2  C   UNL d   1     127.661 132.313 159.449  0.00  0.00     0.000 C 
ATOM      3  C   UNL d   1     126.704 131.599 160.404  0.00  0.00     0.005 C 
ATOM      4  C   UNL d   1     127.398 130.342 161.003  0.00  0.00     0.004 C 
ATOM      5  C   UNL d   1     128.904 132.421 157.394  0.00  0.00     0.000 C 
ATOM      6  C   UNL d   1     128.950 130.298 158.911  0.00  0.00     0.000 C 
ATOM      7  C   UNL d   1     126.397 129.513 161.905  0.00  0.00     0.015 C 
ATOM      8  C   UNL d   1     127.181 133.584 158.773  0.00  0.00     0.000 C 
ATOM      9  C   UNL d   1     128.149 129.485 159.943  0.00  0.00     0.000 C 
ATOM     10  C   UNL d   1     128.176 133.779 157.626  0.00  0.00     0.000 C 
ATOM     11  C   UNL d   1     126.219 132.524 161.529  0.00  0.00     0.025 C 
ATOM     12  C   UNL d   1     126.886 130.824 157.499  0.00  0.00     0.000 C 
ATOM     13  C   UNL d   1     125.559 130.450 162.787  0.00  0.00    -0.047 C 
ATOM     14  C   UNL d   1     127.229 128.572 162.824  0.00  0.00     0.006 C 
ATOM     15  C   UNL d   1     125.513 131.781 162.619  0.00  0.00    -0.035 C 
ATOM     16  C   UNL d   1     125.431 128.666 161.040  0.00  0.00     0.004 C 
ATOM     17  C   UNL d   1     124.767 129.798 163.904  0.00  0.00     0.051 C 
ATOM     18  C   UNL d   1     126.413 127.885 163.920  0.00  0.00     0.030 C 
ATOM     19  C   UNL d   1     125.646 128.896 164.768  0.00  0.00     0.115 C 
ENDROOT
BRANCH   5  20
ATOM     20  C   UNL d   1     129.123 132.139 155.867  0.00  0.00     0.000 C 
ATOM     21  C   UNL d   1     130.487 131.504 155.569  0.00  0.00     0.000 C 
BRANCH  20  22
ATOM     22  C   UNL d   1     128.942 133.461 155.066  0.00  0.00     0.000 C 
BRANCH  22  23
ATOM     23  C   UNL d   1     128.642 133.354 153.564  0.00  0.00     0.000 C 
BRANCH  23  24
ATOM     24  C   UNL d   1     129.642 134.037 152.622  0.00  0.00     0.000 C 
BRANCH  24  25
ATOM     25  C   UNL d   1     129.039 134.633 151.337  0.00  0.00     0.000 C 
ATOM     26  C   UNL d   1     129.158 133.670 150.151  0.00  0.00     0.000 C 
ATOM     27  C   UNL d   1     127.569 134.994 151.565  0.00  0.00     0.000 C 
ENDBRANCH  24  25
ENDBRANCH  23  24
ENDBRANCH  22  23
ENDBRANCH  20  22
ENDBRANCH   5  20
BRANCH  19  28
ATOM     28  O   UNL d   1     124.817 128.201 165.698  0.00  0.00    -0.385 OA
ATOM     29  H   UNL d   1     125.125 128.431 166.594  0.00  0.00     0.210 HD
ENDBRANCH  19  28
TORSDOF 6
ENDMDL
MODEL 2
REMARK VINA RESULT:    -8.614      6.447      8.411
REMARK INTER + INTRA:         -12.114
REMARK INTER:                 -11.224
REMARK INTRA:                  -0.890
REMARK UNBOUND:                -0.730
REMARK  6 active torsions:
REMARK  status: ('A' for Active; 'I' for Inactive)
REMARK    1  A    between atoms: O_1  and  C_22 
REMARK    2  A    between atoms: C_6  and  C_13 
REMARK    3  A    between atoms: C_13  and  C_21 
REMARK    4  A    between atoms: C_21  and  C_24 
REMARK    5  A    between atoms: C_24  and  C_25 
REMARK    6  A    between atoms: C_25  and  C_26 
ROOT
ATOM      1  C   UNL d   1     131.508 125.961 154.606  0.00  0.00     0.000 C 
ATOM      2  C   UNL d   1     130.735 125.083 155.624  0.00  0.00     0.000 C 
ATOM      3  C   UNL d   1     130.642 125.738 157.002  0.00  0.00     0.005 C 
ATOM      4  C   UNL d   1     129.896 127.099 156.890  0.00  0.00     0.004 C 
ATOM      5  C   UNL d   1     131.593 124.997 153.380  0.00  0.00     0.000 C 
ATOM      6  C   UNL d   1     130.614 127.197 154.388  0.00  0.00     0.000 C 
ATOM      7  C   UNL d   1     129.885 127.859 158.277  0.00  0.00     0.015 C 
ATOM      8  C   UNL d   1     131.411 123.728 155.520  0.00  0.00     0.000 C 
ATOM      9  C   UNL d   1     130.377 127.972 155.696  0.00  0.00     0.000 C 
ATOM     10  C   UNL d   1     131.693 123.581 154.023  0.00  0.00     0.000 C 
ATOM     11  C   UNL d   1     129.941 124.830 158.023  0.00  0.00     0.025 C 
ATOM     12  C   UNL d   1     132.913 126.359 155.123  0.00  0.00     0.000 C 
ATOM     13  C   UNL d   1     129.587 126.886 159.427  0.00  0.00    -0.047 C 
ATOM     14  C   UNL d   1     128.766 128.941 158.234  0.00  0.00     0.006 C 
ATOM     15  C   UNL d   1     129.593 125.551 159.288  0.00  0.00    -0.035 C 
ATOM     16  C   UNL d   1     131.247 128.540 158.556  0.00  0.00     0.004 C 
ATOM     17  C   UNL d   1     129.259 127.508 160.771  0.00  0.00     0.051 C 
ATOM     18  C   UNL d   1     128.473 129.593 159.587  0.00  0.00     0.030 C 
ATOM     19  C   UNL d   1     128.151 128.553 160.656  0.00  0.00     0.115 C 
ENDROOT
BRANCH   5  20
ATOM     20  C   UNL d   1     132.697 125.213 152.288  0.00  0.00     0.000 C 
ATOM     21  C   UNL d   1     132.362 126.354 151.319  0.00  0.00     0.000 C 
BRANCH  20  22
ATOM     22  C   UNL d   1     132.928 123.882 151.516  0.00  0.00     0.000 C 
BRANCH  22  23
ATOM     23  C   UNL d   1     133.446 123.969 150.072  0.00  0.00     0.000 C 
BRANCH  23  24
ATOM     24  C   UNL d   1     134.949 124.226 149.905  0.00  0.00     0.000 C 
BRANCH  24  25
ATOM     25  C   UNL d   1     135.318 125.473 149.081  0.00  0.00     0.000 C 
ATOM     26  C   UNL d   1     135.841 126.608 149.967  0.00  0.00     0.000 C 
ATOM     27  C   UNL d   1     136.367 125.114 148.025  0.00  0.00     0.000 C 
ENDBRANCH  24  25
ENDBRANCH  23  24
ENDBRANCH  22  23
ENDBRANCH  20  22
ENDBRANCH   5  20
BRANCH  19  28
ATOM     28  O   UNL d   1     127.998 129.202 161.916  0.00  0.00    -0.385 OA
ATOM     29  H   UNL d   1     127.625 130.086 161.747  0.00  0.00     0.210 HD
ENDBRANCH  19  28
TORSDOF 6
ENDMDL
MODEL 3
REMARK VINA RESULT:    -8.312     38.898     41.478
REMARK INTER + INTRA:         -11.716
REMARK INTER:                 -10.471
REMARK INTRA:                  -1.244
REMARK UNBOUND:                -0.730
REMARK  6 active torsions:
REMARK  status: ('A' for Active; 'I' for Inactive)
REMARK    1  A    between atoms: O_1  and  C_22 
REMARK    2  A    between atoms: C_6  and  C_13 
REMARK    3  A    between atoms: C_13  and  C_21 
REMARK    4  A    between atoms: C_21  and  C_24 
REMARK    5  A    between atoms: C_24  and  C_25 
REMARK    6  A    between atoms: C_25  and  C_26 
ROOT
ATOM      1  C   UNL d   1     126.834 141.443 198.275  0.00  0.00     0.000 C 
ATOM      2  C   UNL d   1     125.915 140.694 197.276  0.00  0.00     0.000 C 
ATOM      3  C   UNL d   1     124.945 139.744 197.980  0.00  0.00     0.005 C 
ATOM      4  C   UNL d   1     124.032 140.547 198.951  0.00  0.00     0.004 C 
ATOM      5  C   UNL d   1     127.801 142.184 197.298  0.00  0.00     0.000 C 
ATOM      6  C   UNL d   1     125.890 142.369 199.066  0.00  0.00     0.000 C 
ATOM      7  C   UNL d   1     123.096 139.581 199.784  0.00  0.00     0.015 C 
ATOM      8  C   UNL d   1     126.881 140.108 196.264  0.00  0.00     0.000 C 
ATOM      9  C   UNL d   1     124.809 141.577 199.822  0.00  0.00     0.000 C 
ATOM     10  C   UNL d   1     127.929 141.211 196.088  0.00  0.00     0.000 C 
ATOM     11  C   UNL d   1     124.090 138.952 196.981  0.00  0.00     0.025 C 
ATOM     12  C   UNL d   1     127.596 140.471 199.212  0.00  0.00     0.000 C 
ATOM     13  C   UNL d   1     122.518 138.478 198.885  0.00  0.00    -0.047 C 
ATOM     14  C   UNL d   1     121.920 140.419 200.366  0.00  0.00     0.006 C 
ATOM     15  C   UNL d   1     122.956 138.232 197.639  0.00  0.00    -0.035 C 
ATOM     16  C   UNL d   1     123.872 138.908 200.943  0.00  0.00     0.004 C 
ATOM     17  C   UNL d   1     121.385 137.655 199.468  0.00  0.00     0.051 C 
ATOM     18  C   UNL d   1     120.804 139.581 200.991  0.00  0.00     0.030 C 
ATOM     19  C   UNL d   1     120.266 138.540 200.013  0.00  0.00     0.115 C 
ENDROOT
BRANCH   5  20
ATOM     20  C   UNL d   1     129.206 142.666 197.801  0.00  0.00     0.000 C 
ATOM     21  C   UNL d   1     129.447 144.160 197.551  0.00  0.00     0.000 C 
BRANCH  20  22
ATOM     22  C   UNL d   1     130.317 141.807 197.130  0.00  0.00     0.000 C 
BRANCH  22  23
ATOM     23  C   UNL d   1     131.548 141.442 197.973  0.00  0.00     0.000 C 
BRANCH  23  24
ATOM     24  C   UNL d   1     131.304 141.212 199.469  0.00  0.00     0.000 C 
BRANCH  24  25
ATOM     25  C   UNL d   1     131.679 142.388 200.388  0.00  0.00     0.000 C 
ATOM     26  C   UNL d   1     132.388 141.915 201.661  0.00  0.00     0.000 C 
ATOM     27  C   UNL d   1     132.573 143.378 199.637  0.00  0.00     0.000 C 
ENDBRANCH  24  25
ENDBRANCH  23  24
ENDBRANCH  22  23
ENDBRANCH  20  22
ENDBRANCH   5  20
BRANCH  19  28
ATOM     28  O   UNL d   1     119.311 137.715 200.678  0.00  0.00    -0.385 OA
ATOM     29  H   UNL d   1     119.003 137.049 200.037  0.00  0.00     0.210 HD
ENDBRANCH  19  28
TORSDOF 6
ENDMDL
MODEL 4
REMARK VINA RESULT:    -8.189     36.550     37.857
REMARK INTER + INTRA:         -11.552
REMARK INTER:                 -10.681
REMARK INTRA:                  -0.871
REMARK UNBOUND:                -0.730
REMARK  6 active torsions:
REMARK  status: ('A' for Active; 'I' for Inactive)
REMARK    1  A    between atoms: O_1  and  C_22 
REMARK    2  A    between atoms: C_6  and  C_13 
REMARK    3  A    between atoms: C_13  and  C_21 
REMARK    4  A    between atoms: C_21  and  C_24 
REMARK    5  A    between atoms: C_24  and  C_25 
REMARK    6  A    between atoms: C_25  and  C_26 
ROOT
ATOM      1  C   UNL d   1     140.557 139.797 125.056  0.00  0.00     0.000 C 
ATOM      2  C   UNL d   1     141.765 138.947 125.525  0.00  0.00     0.000 C 
ATOM      3  C   UNL d   1     143.020 139.793 125.742  0.00  0.00     0.005 C 
ATOM      4  C   UNL d   1     142.749 140.869 126.832  0.00  0.00     0.004 C 
ATOM      5  C   UNL d   1     139.502 138.684 124.758  0.00  0.00     0.000 C 
ATOM      6  C   UNL d   1     140.214 140.698 126.258  0.00  0.00     0.000 C 
ATOM      7  C   UNL d   1     143.989 141.838 126.998  0.00  0.00     0.015 C 
ATOM      8  C   UNL d   1     141.829 137.818 124.513  0.00  0.00     0.000 C 
ATOM      9  C   UNL d   1     141.392 141.608 126.648  0.00  0.00     0.000 C 
ATOM     10  C   UNL d   1     140.358 137.482 124.256  0.00  0.00     0.000 C 
ATOM     11  C   UNL d   1     144.231 138.933 126.134  0.00  0.00     0.025 C 
ATOM     12  C   UNL d   1     140.883 140.633 123.793  0.00  0.00     0.000 C 
ATOM     13  C   UNL d   1     145.303 141.045 126.980  0.00  0.00    -0.047 C 
ATOM     14  C   UNL d   1     143.863 142.565 128.368  0.00  0.00     0.006 C 
ATOM     15  C   UNL d   1     145.385 139.754 126.617  0.00  0.00    -0.035 C 
ATOM     16  C   UNL d   1     144.038 142.888 125.860  0.00  0.00     0.004 C 
ATOM     17  C   UNL d   1     146.550 141.792 127.414  0.00  0.00     0.051 C 
ATOM     18  C   UNL d   1     145.109 143.352 128.776  0.00  0.00     0.030 C 
ATOM     19  C   UNL d   1     146.357 142.474 128.767  0.00  0.00     0.115 C 
ENDROOT
BRANCH   5  20
ATOM     20  C   UNL d   1     138.301 138.979 123.794  0.00  0.00     0.000 C 
ATOM     21  C   UNL d   1     136.948 138.999 124.516  0.00  0.00     0.000 C 
BRANCH  20  22
ATOM     22  C   UNL d   1     138.296 137.934 122.641  0.00  0.00     0.000 C 
BRANCH  22  23
ATOM     23  C   UNL d   1     137.117 137.956 121.657  0.00  0.00     0.000 C 
BRANCH  23  24
ATOM     24  C   UNL d   1     136.713 136.607 121.051  0.00  0.00     0.000 C 
BRANCH  24  25
ATOM     25  C   UNL d   1     135.251 136.187 121.290  0.00  0.00     0.000 C 
ATOM     26  C   UNL d   1     135.120 134.678 121.515  0.00  0.00     0.000 C 
ATOM     27  C   UNL d   1     134.677 136.941 122.492  0.00  0.00     0.000 C 
ENDBRANCH  24  25
ENDBRANCH  23  24
ENDBRANCH  22  23
ENDBRANCH  20  22
ENDBRANCH   5  20
BRANCH  19  28
ATOM     28  O   UNL d   1     147.503 143.277 129.043  0.00  0.00    -0.385 OA
ATOM     29  H   UNL d   1     147.477 144.041 128.437  0.00  0.00     0.210 HD
ENDBRANCH  19  28
TORSDOF 6
ENDMDL
MODEL 5
REMARK VINA RESULT:    -7.945     31.395     35.125
REMARK INTER + INTRA:         -11.231
REMARK INTER:                  -9.977
REMARK INTRA:                  -1.253
REMARK UNBOUND:                -0.730
REMARK  6 active torsions:
REMARK  status: ('A' for Active; 'I' for Inactive)
REMARK    1  A    between atoms: O_1  and  C_22 
REMARK    2  A    between atoms: C_6  and  C_13 
REMARK    3  A    between atoms: C_13  and  C_21 
REMARK    4  A    between atoms: C_21  and  C_24 
REMARK    5  A    between atoms: C_24  and  C_25 
REMARK    6  A    between atoms: C_25  and  C_26 
ROOT
ATOM      1  C   UNL d   1     133.413 112.081 129.286  0.00  0.00     0.000 C 
ATOM      2  C   UNL d   1     133.497 112.940 130.574  0.00  0.00     0.000 C 
ATOM      3  C   UNL d   1     132.392 112.595 131.574  0.00  0.00     0.005 C 
ATOM      4  C   UNL d   1     132.509 111.101 131.994  0.00  0.00     0.004 C 
ATOM      5  C   UNL d   1     134.518 112.748 128.406  0.00  0.00     0.000 C 
ATOM      6  C   UNL d   1     133.739 110.646 129.744  0.00  0.00     0.000 C 
ATOM      7  C   UNL d   1     131.311 110.679 132.938  0.00  0.00     0.015 C 
ATOM      8  C   UNL d   1     133.572 114.364 130.055  0.00  0.00     0.000 C 
ATOM      9  C   UNL d   1     132.737 110.137 130.795  0.00  0.00     0.000 C 
ATOM     10  C   UNL d   1     134.471 114.249 128.822  0.00  0.00     0.000 C 
ATOM     11  C   UNL d   1     132.436 113.500 132.813  0.00  0.00     0.025 C 
ATOM     12  C   UNL d   1     132.018 112.162 128.616  0.00  0.00     0.000 C 
ATOM     13  C   UNL d   1     131.027 111.773 133.977  0.00  0.00    -0.047 C 
ATOM     14  C   UNL d   1     131.712 109.373 133.683  0.00  0.00     0.006 C 
ATOM     15  C   UNL d   1     131.554 113.007 133.916  0.00  0.00    -0.035 C 
ATOM     16  C   UNL d   1     130.017 110.431 132.125  0.00  0.00     0.004 C 
ATOM     17  C   UNL d   1     130.109 111.394 135.123  0.00  0.00     0.051 C 
ATOM     18  C   UNL d   1     130.755 108.975 134.809  0.00  0.00     0.030 C 
ATOM     19  C   UNL d   1     130.565 110.110 135.812  0.00  0.00     0.115 C 
ENDROOT
BRANCH   5  20
ATOM     20  C   UNL d   1     134.488 112.580 126.848  0.00  0.00     0.000 C 
ATOM     21  C   UNL d   1     135.800 112.022 126.284  0.00  0.00     0.000 C 
BRANCH  20  22
ATOM     22  C   UNL d   1     134.138 113.945 126.188  0.00  0.00     0.000 C 
BRANCH  22  23
ATOM     23  C   UNL d   1     132.917 114.001 125.259  0.00  0.00     0.000 C 
BRANCH  23  24
ATOM     24  C   UNL d   1     132.081 112.719 125.157  0.00  0.00     0.000 C 
BRANCH  24  25
ATOM     25  C   UNL d   1     132.011 112.086 123.756  0.00  0.00     0.000 C 
ATOM     26  C   UNL d   1     131.644 113.114 122.682  0.00  0.00     0.000 C 
ATOM     27  C   UNL d   1     133.350 111.429 123.408  0.00  0.00     0.000 C 
ENDBRANCH  24  25
ENDBRANCH  23  24
ENDBRANCH  22  23
ENDBRANCH  20  22
ENDBRANCH   5  20
BRANCH  19  28
ATOM     28  O   UNL d   1     129.582 109.731 136.774  0.00  0.00    -0.385 OA
ATOM     29  H   UNL d   1     128.881 109.248 136.300  0.00  0.00     0.210 HD
ENDBRANCH  19  28
TORSDOF 6
ENDMDL
MODEL 6
REMARK VINA RESULT:    -7.930     47.369     52.809
REMARK INTER + INTRA:         -11.211
REMARK INTER:                  -9.909
REMARK INTRA:                  -1.302
REMARK UNBOUND:                -0.730
REMARK  6 active torsions:
REMARK  status: ('A' for Active; 'I' for Inactive)
REMARK    1  A    between atoms: O_1  and  C_22 
REMARK    2  A    between atoms: C_6  and  C_13 
REMARK    3  A    between atoms: C_13  and  C_21 
REMARK    4  A    between atoms: C_21  and  C_24 
REMARK    5  A    between atoms: C_24  and  C_25 
REMARK    6  A    between atoms: C_25  and  C_26 
ROOT
ATOM      1  C   UNL d   1     144.374 136.984 110.208  0.00  0.00     0.000 C 
ATOM      2  C   UNL d   1     145.041 136.008 109.205  0.00  0.00     0.000 C 
ATOM      3  C   UNL d   1     144.019 135.320 108.299  0.00  0.00     0.005 C 
ATOM      4  C   UNL d   1     143.242 136.386 107.474  0.00  0.00     0.004 C 
ATOM      5  C   UNL d   1     145.597 137.396 111.087  0.00  0.00     0.000 C 
ATOM      6  C   UNL d   1     143.801 138.119 109.336  0.00  0.00     0.000 C 
ATOM      7  C   UNL d   1     142.096 135.717 106.613  0.00  0.00     0.015 C 
ATOM      8  C   UNL d   1     145.923 135.137 110.080  0.00  0.00     0.000 C 
ATOM      9  C   UNL d   1     142.766 137.600 108.324  0.00  0.00     0.000 C 
ATOM     10  C   UNL d   1     146.489 136.118 111.109  0.00  0.00     0.000 C 
ATOM     11  C   UNL d   1     144.680 134.300 107.361  0.00  0.00     0.025 C 
ATOM     12  C   UNL d   1     143.267 136.298 111.047  0.00  0.00     0.000 C 
ATOM     13  C   UNL d   1     142.596 134.421 105.959  0.00  0.00    -0.047 C 
ATOM     14  C   UNL d   1     141.680 136.714 105.492  0.00  0.00     0.006 C 
ATOM     15  C   UNL d   1     143.753 133.823 106.287  0.00  0.00    -0.035 C 
ATOM     16  C   UNL d   1     140.863 135.378 107.485  0.00  0.00     0.004 C 
ATOM     17  C   UNL d   1     141.712 133.824 104.880  0.00  0.00     0.051 C 
ATOM     18  C   UNL d   1     140.753 136.115 104.433  0.00  0.00     0.030 C 
ATOM     19  C   UNL d   1     141.349 134.854 103.813  0.00  0.00     0.115 C 
ENDROOT
BRANCH   5  20
ATOM     20  C   UNL d   1     145.369 137.965 112.530  0.00  0.00     0.000 C 
ATOM     21  C   UNL d   1     145.401 139.497 112.579  0.00  0.00     0.000 C 
BRANCH  20  22
ATOM     22  C   UNL d   1     146.428 137.359 113.497  0.00  0.00     0.000 C 
BRANCH  22  23
ATOM     23  C   UNL d   1     145.978 137.000 114.921  0.00  0.00     0.000 C 
BRANCH  23  24
ATOM     24  C   UNL d   1     144.483 136.711 115.108  0.00  0.00     0.000 C 
BRANCH  24  25
ATOM     25  C   UNL d   1     144.112 135.226 115.273  0.00  0.00     0.000 C 
ATOM     26  C   UNL d   1     142.667 134.948 114.851  0.00  0.00     0.000 C 
ATOM     27  C   UNL d   1     145.067 134.352 114.456  0.00  0.00     0.000 C 
ENDBRANCH  24  25
ENDBRANCH  23  24
ENDBRANCH  22  23
ENDBRANCH  20  22
ENDBRANCH   5  20
BRANCH  19  28
ATOM     28  O   UNL d   1     140.401 134.274 102.918  0.00  0.00    -0.385 OA
ATOM     29  H   UNL d   1     140.045 133.475 103.348  0.00  0.00     0.210 HD
ENDBRANCH  19  28
TORSDOF 6
ENDMDL
MODEL 7
REMARK VINA RESULT:    -7.883     35.708     40.070
REMARK INTER + INTRA:         -11.148
REMARK INTER:                  -9.975
REMARK INTRA:                  -1.173
REMARK UNBOUND:                -0.730
REMARK  6 active torsions:
REMARK  status: ('A' for Active; 'I' for Inactive)
REMARK    1  A    between atoms: O_1  and  C_22 
REMARK    2  A    between atoms: C_6  and  C_13 
REMARK    3  A    between atoms: C_13  and  C_21 
REMARK    4  A    between atoms: C_21  and  C_24 
REMARK    5  A    between atoms: C_24  and  C_25 
REMARK    6  A    between atoms: C_25  and  C_26 
ROOT
ATOM      1  C   UNL d   1     131.769 112.075 124.092  0.00  0.00     0.000 C 
ATOM      2  C   UNL d   1     133.054 111.207 124.105  0.00  0.00     0.000 C 
ATOM      3  C   UNL d   1     134.090 111.719 125.106  0.00  0.00     0.005 C 
ATOM      4  C   UNL d   1     133.492 111.698 126.542  0.00  0.00     0.004 C 
ATOM      5  C   UNL d   1     130.989 111.441 122.897  0.00  0.00     0.000 C 
ATOM      6  C   UNL d   1     131.122 111.846 125.472  0.00  0.00     0.000 C 
ATOM      7  C   UNL d   1     134.496 112.332 127.587  0.00  0.00     0.015 C 
ATOM      8  C   UNL d   1     133.451 111.125 122.643  0.00  0.00     0.000 C 
ATOM      9  C   UNL d   1     132.050 112.278 126.620  0.00  0.00     0.000 C 
ATOM     10  C   UNL d   1     132.111 110.990 121.914  0.00  0.00     0.000 C 
ATOM     11  C   UNL d   1     135.388 110.899 125.059  0.00  0.00     0.025 C 
ATOM     12  C   UNL d   1     132.077 113.574 123.848  0.00  0.00     0.000 C 
ATOM     13  C   UNL d   1     135.930 111.853 127.321  0.00  0.00    -0.047 C 
ATOM     14  C   UNL d   1     134.072 111.874 129.014  0.00  0.00     0.006 C 
ATOM     15  C   UNL d   1     136.299 111.200 126.207  0.00  0.00    -0.035 C 
ATOM     16  C   UNL d   1     134.478 113.879 127.517  0.00  0.00     0.004 C 
ATOM     17  C   UNL d   1     136.951 112.142 128.405  0.00  0.00     0.051 C 
ATOM     18  C   UNL d   1     135.089 112.209 130.107  0.00  0.00     0.030 C 
ATOM     19  C   UNL d   1     136.474 111.661 129.774  0.00  0.00     0.115 C 
ENDROOT
BRANCH   5  20
ATOM     20  C   UNL d   1     129.876 112.266 122.162  0.00  0.00     0.000 C 
ATOM     21  C   UNL d   1     128.475 111.672 122.346  0.00  0.00     0.000 C 
BRANCH  20  22
ATOM     22  C   UNL d   1     130.233 112.382 120.651  0.00  0.00     0.000 C 
BRANCH  22  23
ATOM     23  C   UNL d   1     130.855 113.698 120.160  0.00  0.00     0.000 C 
BRANCH  23  24
ATOM     24  C   UNL d   1     131.415 113.693 118.732  0.00  0.00     0.000 C 
BRANCH  24  25
ATOM     25  C   UNL d   1     132.558 112.694 118.475  0.00  0.00     0.000 C 
ATOM     26  C   UNL d   1     132.983 112.679 117.004  0.00  0.00     0.000 C 
ATOM     27  C   UNL d   1     133.762 113.033 119.358  0.00  0.00     0.000 C 
ENDBRANCH  24  25
ENDBRANCH  23  24
ENDBRANCH  22  23
ENDBRANCH  20  22
ENDBRANCH   5  20
BRANCH  19  28
ATOM     28  O   UNL d   1     137.405 112.095 130.764  0.00  0.00    -0.385 OA
ATOM     29  H   UNL d   1     138.298 111.878 130.440  0.00  0.00     0.210 HD
ENDBRANCH  19  28
TORSDOF 6
ENDMDL
MODEL 8
REMARK VINA RESULT:    -7.865      5.485      7.573
REMARK INTER + INTRA:         -11.125
REMARK INTER:                 -10.282
REMARK INTRA:                  -0.843
REMARK UNBOUND:                -0.730
REMARK  6 active torsions:
REMARK  status: ('A' for Active; 'I' for Inactive)
REMARK    1  A    between atoms: O_1  and  C_22 
REMARK    2  A    between atoms: C_6  and  C_13 
REMARK    3  A    between atoms: C_13  and  C_21 
REMARK    4  A    between atoms: C_21  and  C_24 
REMARK    5  A    between atoms: C_24  and  C_25 
REMARK    6  A    between atoms: C_25  and  C_26 
ROOT
ATOM      1  C   UNL d   1     129.530 126.948 154.897  0.00  0.00     0.000 C 
ATOM      2  C   UNL d   1     129.758 128.415 154.449  0.00  0.00     0.000 C 
ATOM      3  C   UNL d   1     128.847 129.396 155.190  0.00  0.00     0.005 C 
ATOM      4  C   UNL d   1     129.123 129.320 156.719  0.00  0.00     0.004 C 
ATOM      5  C   UNL d   1     130.440 126.180 153.886  0.00  0.00     0.000 C 
ATOM      6  C   UNL d   1     130.015 126.899 156.359  0.00  0.00     0.000 C 
ATOM      7  C   UNL d   1     128.117 130.236 157.526  0.00  0.00     0.015 C 
ATOM      8  C   UNL d   1     129.661 128.352 152.936  0.00  0.00     0.000 C 
ATOM      9  C   UNL d   1     129.223 127.864 157.259  0.00  0.00     0.000 C 
ATOM     10  C   UNL d   1     130.362 127.037 152.586  0.00  0.00     0.000 C 
ATOM     11  C   UNL d   1     129.026 130.836 154.688  0.00  0.00     0.025 C 
ATOM     12  C   UNL d   1     128.046 126.522 154.773  0.00  0.00     0.000 C 
ATOM     13  C   UNL d   1     127.929 131.587 156.822  0.00  0.00    -0.047 C 
ATOM     14  C   UNL d   1     128.712 130.488 158.942  0.00  0.00     0.006 C 
ATOM     15  C   UNL d   1     128.360 131.840 155.576  0.00  0.00    -0.035 C 
ATOM     16  C   UNL d   1     126.730 129.561 157.663  0.00  0.00     0.004 C 
ATOM     17  C   UNL d   1     127.227 132.672 157.617  0.00  0.00     0.051 C 
ATOM     18  C   UNL d   1     127.969 131.551 159.753  0.00  0.00     0.030 C 
ATOM     19  C   UNL d   1     127.866 132.869 158.990  0.00  0.00     0.115 C 
ENDROOT
BRANCH   5  20
ATOM     20  C   UNL d   1     130.177 124.662 153.592  0.00  0.00     0.000 C 
ATOM     21  C   UNL d   1     130.545 123.755 154.772  0.00  0.00     0.000 C 
BRANCH  20  22
ATOM     22  C   UNL d   1     130.953 124.243 152.309  0.00  0.00     0.000 C 
BRANCH  22  23
ATOM     23  C   UNL d   1     132.485 124.175 152.387  0.00  0.00     0.000 C 
BRANCH  23  24
ATOM     24  C   UNL d   1     133.208 123.685 151.125  0.00  0.00     0.000 C 
BRANCH  24  25
ATOM     25  C   UNL d   1     134.066 124.741 150.405  0.00  0.00     0.000 C 
ATOM     26  C   UNL d   1     133.802 124.759 148.896  0.00  0.00     0.000 C 
ATOM     27  C   UNL d   1     133.798 126.128 150.993  0.00  0.00     0.000 C 
ENDBRANCH  24  25
ENDBRANCH  23  24
ENDBRANCH  22  23
ENDBRANCH  20  22
ENDBRANCH   5  20
BRANCH  19  28
ATOM     28  O   UNL d   1     127.071 133.787 159.738  0.00  0.00    -0.385 OA
ATOM     29  H   UNL d   1     127.083 133.494 160.668  0.00  0.00     0.210 HD
ENDBRANCH  19  28
TORSDOF 6
ENDMDL
MODEL 9
REMARK VINA RESULT:    -7.849     36.247     37.808
REMARK INTER + INTRA:         -11.104
REMARK INTER:                  -9.580
REMARK INTRA:                  -1.523
REMARK UNBOUND:                -0.730
REMARK  6 active torsions:
REMARK  status: ('A' for Active; 'I' for Inactive)
REMARK    1  A    between atoms: O_1  and  C_22 
REMARK    2  A    between atoms: C_6  and  C_13 
REMARK    3  A    between atoms: C_13  and  C_21 
REMARK    4  A    between atoms: C_21  and  C_24 
REMARK    5  A    between atoms: C_24  and  C_25 
REMARK    6  A    between atoms: C_25  and  C_26 
ROOT
ATOM      1  C   UNL d   1     140.269 140.686 125.728  0.00  0.00     0.000 C 
ATOM      2  C   UNL d   1     141.384 139.652 126.027  0.00  0.00     0.000 C 
ATOM      3  C   UNL d   1     142.777 140.285 126.027  0.00  0.00     0.005 C 
ATOM      4  C   UNL d   1     142.853 141.390 127.119  0.00  0.00     0.004 C 
ATOM      5  C   UNL d   1     139.017 139.757 125.624  0.00  0.00     0.000 C 
ATOM      6  C   UNL d   1     140.265 141.630 126.947  0.00  0.00     0.000 C 
ATOM      7  C   UNL d   1     144.242 142.147 127.068  0.00  0.00     0.015 C 
ATOM      8  C   UNL d   1     141.110 138.528 125.045  0.00  0.00     0.000 C 
ATOM      9  C   UNL d   1     141.619 142.338 127.128  0.00  0.00     0.000 C 
ATOM     10  C   UNL d   1     139.582 138.433 125.026  0.00  0.00     0.000 C 
ATOM     11  C   UNL d   1     143.881 139.241 126.250  0.00  0.00     0.025 C 
ATOM     12  C   UNL d   1     140.523 141.458 124.410  0.00  0.00     0.000 C 
ATOM     13  C   UNL d   1     145.395 141.152 126.868  0.00  0.00    -0.047 C 
ATOM     14  C   UNL d   1     144.448 142.885 128.423  0.00  0.00     0.006 C 
ATOM     15  C   UNL d   1     145.212 139.865 126.529  0.00  0.00    -0.035 C 
ATOM     16  C   UNL d   1     144.280 143.175 125.911  0.00  0.00     0.004 C 
ATOM     17  C   UNL d   1     146.796 141.689 127.087  0.00  0.00     0.051 C 
ATOM     18  C   UNL d   1     145.852 143.460 128.616  0.00  0.00     0.030 C 
ATOM     19  C   UNL d   1     146.928 142.392 128.436  0.00  0.00     0.115 C 
ENDROOT
BRANCH   5  20
ATOM     20  C   UNL d   1     137.743 140.242 124.849  0.00  0.00     0.000 C 
ATOM     21  C   UNL d   1     136.964 141.326 125.603  0.00  0.00     0.000 C 
BRANCH  20  22
ATOM     22  C   UNL d   1     136.831 139.020 124.539  0.00  0.00     0.000 C 
BRANCH  22  23
ATOM     23  C   UNL d   1     136.386 138.807 123.084  0.00  0.00     0.000 C 
BRANCH  23  24
ATOM     24  C   UNL d   1     137.475 138.369 122.098  0.00  0.00     0.000 C 
BRANCH  24  25
ATOM     25  C   UNL d   1     137.973 139.463 121.136  0.00  0.00     0.000 C 
ATOM     26  C   UNL d   1     137.109 140.726 121.210  0.00  0.00     0.000 C 
ATOM     27  C   UNL d   1     139.430 139.815 121.448  0.00  0.00     0.000 C 
ENDBRANCH  24  25
ENDBRANCH  23  24
ENDBRANCH  22  23
ENDBRANCH  20  22
ENDBRANCH   5  20
BRANCH  19  28
ATOM     28  O   UNL d   1     148.215 143.001 128.513  0.00  0.00    -0.385 OA
ATOM     29  H   UNL d   1     148.595 142.774 129.382  0.00  0.00     0.210 HD
ENDBRANCH  19  28
TORSDOF 6
ENDMDL
MODEL 10
REMARK VINA RESULT:    -7.760     36.236     40.627
REMARK INTER + INTRA:         -10.985
REMARK INTER:                  -9.667
REMARK INTRA:                  -1.319
REMARK UNBOUND:                -0.730
REMARK  6 active torsions:
REMARK  status: ('A' for Active; 'I' for Inactive)
REMARK    1  A    between atoms: O_1  and  C_22 
REMARK    2  A    between atoms: C_6  and  C_13 
REMARK    3  A    between atoms: C_13  and  C_21 
REMARK    4  A    between atoms: C_21  and  C_24 
REMARK    5  A    between atoms: C_24  and  C_25 
REMARK    6  A    between atoms: C_25  and  C_26 
ROOT
ATOM      1  C   UNL d   1     132.479 111.287 123.138  0.00  0.00     0.000 C 
ATOM      2  C   UNL d   1     132.831 112.678 123.724  0.00  0.00     0.000 C 
ATOM      3  C   UNL d   1     133.218 112.603 125.202  0.00  0.00     0.005 C 
ATOM      4  C   UNL d   1     134.464 111.688 125.375  0.00  0.00     0.004 C 
ATOM      5  C   UNL d   1     131.973 111.679 121.713  0.00  0.00     0.000 C 
ATOM      6  C   UNL d   1     133.805 110.502 123.152  0.00  0.00     0.000 C 
ATOM      7  C   UNL d   1     134.821 111.493 126.904  0.00  0.00     0.015 C 
ATOM      8  C   UNL d   1     131.647 113.545 123.338  0.00  0.00     0.000 C 
ATOM      9  C   UNL d   1     134.371 110.356 124.575  0.00  0.00     0.000 C 
ATOM     10  C   UNL d   1     131.301 113.069 121.925  0.00  0.00     0.000 C 
ATOM     11  C   UNL d   1     133.493 113.992 125.794  0.00  0.00     0.025 C 
ATOM     12  C   UNL d   1     131.381 110.565 123.959  0.00  0.00     0.000 C 
ATOM     13  C   UNL d   1     134.706 112.824 127.661  0.00  0.00    -0.047 C 
ATOM     14  C   UNL d   1     136.290 110.986 127.004  0.00  0.00     0.006 C 
ATOM     15  C   UNL d   1     134.136 113.924 127.144  0.00  0.00    -0.035 C 
ATOM     16  C   UNL d   1     133.876 110.467 127.575  0.00  0.00     0.004 C 
ATOM     17  C   UNL d   1     135.291 112.858 129.060  0.00  0.00     0.051 C 
ATOM     18  C   UNL d   1     136.856 110.983 128.425  0.00  0.00     0.030 C 
ATOM     19  C   UNL d   1     136.733 112.355 129.083  0.00  0.00     0.115 C 
ENDROOT
BRANCH   5  20
ATOM     20  C   UNL d   1     131.040 110.704 120.915  0.00  0.00     0.000 C 
ATOM     21  C   UNL d   1     131.816 109.598 120.189  0.00  0.00     0.000 C 
BRANCH  20  22
ATOM     22  C   UNL d   1     130.174 111.521 119.913  0.00  0.00     0.000 C 
BRANCH  22  23
ATOM     23  C   UNL d   1     130.775 111.835 118.535  0.00  0.00     0.000 C 
BRANCH  23  24
ATOM     24  C   UNL d   1     131.238 113.279 118.309  0.00  0.00     0.000 C 
BRANCH  24  25
ATOM     25  C   UNL d   1     132.665 113.436 117.753  0.00  0.00     0.000 C 
ATOM     26  C   UNL d   1     133.712 113.483 118.870  0.00  0.00     0.000 C 
ATOM     27  C   UNL d   1     132.984 112.287 116.793  0.00  0.00     0.000 C 
ENDBRANCH  24  25
ENDBRANCH  23  24
ENDBRANCH  22  23
ENDBRANCH  20  22
ENDBRANCH   5  20
BRANCH  19  28
ATOM     28  O   UNL d   1     137.168 112.270 130.438  0.00  0.00    -0.385 OA
ATOM     29  H   UNL d   1     138.140 112.190 130.429  0.00  0.00     0.210 HD
ENDBRANCH  19  28
TORSDOF 6
ENDMDL
MODEL 11
REMARK VINA RESULT:    -7.605     35.852     39.732
REMARK INTER + INTRA:         -10.781
REMARK INTER:                  -9.652
REMARK INTRA:                  -1.129
REMARK UNBOUND:                -0.730
REMARK  6 active torsions:
REMARK  status: ('A' for Active; 'I' for Inactive)
REMARK    1  A    between atoms: O_1  and  C_22 
REMARK    2  A    between atoms: C_6  and  C_13 
REMARK    3  A    between atoms: C_13  and  C_21 
REMARK    4  A    between atoms: C_21  and  C_24 
REMARK    5  A    between atoms: C_24  and  C_25 
REMARK    6  A    between atoms: C_25  and  C_26 
ROOT
ATOM      1  C   UNL d   1     147.302 153.096 132.081  0.00  0.00     0.000 C 
ATOM      2  C   UNL d   1     146.971 154.329 132.960  0.00  0.00     0.000 C 
ATOM      3  C   UNL d   1     145.497 154.728 132.869  0.00  0.00     0.005 C 
ATOM      4  C   UNL d   1     144.602 153.550 133.352  0.00  0.00     0.004 C 
ATOM      5  C   UNL d   1     148.855 153.026 132.231  0.00  0.00     0.000 C 
ATOM      6  C   UNL d   1     146.543 151.926 132.737  0.00  0.00     0.000 C 
ATOM      7  C   UNL d   1     143.067 153.885 133.160  0.00  0.00     0.015 C 
ATOM      8  C   UNL d   1     148.015 155.353 132.554  0.00  0.00     0.000 C 
ATOM      9  C   UNL d   1     145.025 152.171 132.768  0.00  0.00     0.000 C 
ATOM     10  C   UNL d   1     149.284 154.519 132.370  0.00  0.00     0.000 C 
ATOM     11  C   UNL d   1     145.193 155.994 133.682  0.00  0.00     0.025 C 
ATOM     12  C   UNL d   1     146.875 153.295 130.605  0.00  0.00     0.000 C 
ATOM     13  C   UNL d   1     142.770 155.330 133.585  0.00  0.00    -0.047 C 
ATOM     14  C   UNL d   1     142.240 152.919 134.058  0.00  0.00     0.006 C 
ATOM     15  C   UNL d   1     143.725 156.241 133.834  0.00  0.00    -0.035 C 
ATOM     16  C   UNL d   1     142.635 153.712 131.684  0.00  0.00     0.004 C 
ATOM     17  C   UNL d   1     141.308 155.704 133.732  0.00  0.00     0.051 C 
ATOM     18  C   UNL d   1     140.757 153.280 134.164  0.00  0.00     0.030 C 
ATOM     19  C   UNL d   1     140.560 154.720 134.629  0.00  0.00     0.115 C 
ENDROOT
BRANCH   5  20
ATOM     20  C   UNL d   1     149.714 152.278 131.154  0.00  0.00     0.000 C 
ATOM     21  C   UNL d   1     150.601 151.182 131.757  0.00  0.00     0.000 C 
BRANCH  20  22
ATOM     22  C   UNL d   1     150.571 153.311 130.367  0.00  0.00     0.000 C 
BRANCH  22  23
ATOM     23  C   UNL d   1     150.596 153.204 128.835  0.00  0.00     0.000 C 
BRANCH  23  24
ATOM     24  C   UNL d   1     151.101 151.877 128.255  0.00  0.00     0.000 C 
BRANCH  24  25
ATOM     25  C   UNL d   1     150.082 151.098 127.405  0.00  0.00     0.000 C 
ATOM     26  C   UNL d   1     148.639 151.417 127.808  0.00  0.00     0.000 C 
ATOM     27  C   UNL d   1     150.286 151.411 125.921  0.00  0.00     0.000 C 
ENDBRANCH  24  25
ENDBRANCH  23  24
ENDBRANCH  22  23
ENDBRANCH  20  22
ENDBRANCH   5  20
BRANCH  19  28
ATOM     28  O   UNL d   1     139.170 155.039 134.603  0.00  0.00    -0.385 OA
ATOM     29  H   UNL d   1     139.057 155.806 134.011  0.00  0.00     0.210 HD
ENDBRANCH  19  28
TORSDOF 6
ENDMDL
MODEL 12
REMARK VINA RESULT:    -7.363     36.317     40.579
REMARK INTER + INTRA:         -10.461
REMARK INTER:                  -8.799
REMARK INTRA:                  -1.662
REMARK UNBOUND:                -0.730
REMARK  6 active torsions:
REMARK  status: ('A' for Active; 'I' for Inactive)
REMARK    1  A    between atoms: O_1  and  C_22 
REMARK    2  A    between atoms: C_6  and  C_13 
REMARK    3  A    between atoms: C_13  and  C_21 
REMARK    4  A    between atoms: C_21  and  C_24 
REMARK    5  A    between atoms: C_24  and  C_25 
REMARK    6  A    between atoms: C_25  and  C_26 
ROOT
ATOM      1  C   UNL d   1     144.964 153.426 132.342  0.00  0.00     0.000 C 
ATOM      2  C   UNL d   1     145.388 153.446 130.851  0.00  0.00     0.000 C 
ATOM      3  C   UNL d   1     146.896 153.628 130.678  0.00  0.00     0.005 C 
ATOM      4  C   UNL d   1     147.652 152.457 131.368  0.00  0.00     0.004 C 
ATOM      5  C   UNL d   1     143.408 153.402 132.213  0.00  0.00     0.000 C 
ATOM      6  C   UNL d   1     145.579 152.134 132.913  0.00  0.00     0.000 C 
ATOM      7  C   UNL d   1     149.218 152.675 131.311  0.00  0.00     0.015 C 
ATOM      8  C   UNL d   1     144.466 154.476 130.225  0.00  0.00     0.000 C 
ATOM      9  C   UNL d   1     147.113 152.124 132.790  0.00  0.00     0.000 C 
ATOM     10  C   UNL d   1     143.126 154.230 130.923  0.00  0.00     0.000 C 
ATOM     11  C   UNL d   1     147.298 153.721 129.199  0.00  0.00     0.025 C 
ATOM     12  C   UNL d   1     145.459 154.679 133.108  0.00  0.00     0.000 C 
ATOM     13  C   UNL d   1     149.644 153.185 129.927  0.00  0.00    -0.047 C 
ATOM     14  C   UNL d   1     149.914 151.309 131.577  0.00  0.00     0.006 C 
ATOM     15  C   UNL d   1     148.777 153.621 128.999  0.00  0.00    -0.035 C 
ATOM     16  C   UNL d   1     149.680 153.704 132.373  0.00  0.00     0.004 C 
ATOM     17  C   UNL d   1     151.131 153.166 129.628  0.00  0.00     0.051 C 
ATOM     18  C   UNL d   1     151.421 151.312 131.315  0.00  0.00     0.030 C 
ATOM     19  C   UNL d   1     151.746 151.795 129.904  0.00  0.00     0.115 C 
ENDROOT
BRANCH   5  20
ATOM     20  C   UNL d   1     142.515 153.879 133.410  0.00  0.00     0.000 C 
ATOM     21  C   UNL d   1     141.829 152.718 134.141  0.00  0.00     0.000 C 
BRANCH  20  22
ATOM     22  C   UNL d   1     141.465 154.905 132.894  0.00  0.00     0.000 C 
BRANCH  22  23
ATOM     23  C   UNL d   1     141.476 156.314 133.507  0.00  0.00     0.000 C 
BRANCH  23  24
ATOM     24  C   UNL d   1     142.790 156.759 134.161  0.00  0.00     0.000 C 
BRANCH  24  25
ATOM     25  C   UNL d   1     143.498 157.944 133.480  0.00  0.00     0.000 C 
ATOM     26  C   UNL d   1     144.908 158.163 134.037  0.00  0.00     0.000 C 
ATOM     27  C   UNL d   1     143.568 157.716 131.968  0.00  0.00     0.000 C 
ENDBRANCH  24  25
ENDBRANCH  23  24
ENDBRANCH  22  23
ENDBRANCH  20  22
ENDBRANCH   5  20
BRANCH  19  28
ATOM     28  O   UNL d   1     153.161 151.887 129.750  0.00  0.00    -0.385 OA
ATOM     29  H   UNL d   1     153.552 151.891 130.643  0.00  0.00     0.210 HD
ENDBRANCH  19  28
TORSDOF 6
ENDMDL
MODEL 13
REMARK VINA RESULT:    -7.265     34.182     39.320
REMARK INTER + INTRA:         -10.332
REMARK INTER:                  -8.676
REMARK INTRA:                  -1.655
REMARK UNBOUND:                -0.730
REMARK  6 active torsions:
REMARK  status: ('A' for Active; 'I' for Inactive)
REMARK    1  A    between atoms: O_1  and  C_22 
REMARK    2  A    between atoms: C_6  and  C_13 
REMARK    3  A    between atoms: C_13  and  C_21 
REMARK    4  A    between atoms: C_21  and  C_24 
REMARK    5  A    between atoms: C_24  and  C_25 
REMARK    6  A    between atoms: C_25  and  C_26 
ROOT
ATOM      1  C   UNL d   1     135.290 110.708 127.691  0.00  0.00     0.000 C 
ATOM      2  C   UNL d   1     136.060 109.805 128.688  0.00  0.00     0.000 C 
ATOM      3  C   UNL d   1     135.983 108.325 128.308  0.00  0.00     0.005 C 
ATOM      4  C   UNL d   1     136.605 108.109 126.898  0.00  0.00     0.004 C 
ATOM      5  C   UNL d   1     135.393 112.096 128.401  0.00  0.00     0.000 C 
ATOM      6  C   UNL d   1     136.078 110.605 126.371  0.00  0.00     0.000 C 
ATOM      7  C   UNL d   1     136.435 106.610 126.424  0.00  0.00     0.015 C 
ATOM      8  C   UNL d   1     135.526 110.224 130.045  0.00  0.00     0.000 C 
ATOM      9  C   UNL d   1     136.138 109.160 125.849  0.00  0.00     0.000 C 
ATOM     10  C   UNL d   1     135.377 111.742 129.919  0.00  0.00     0.000 C 
ATOM     11  C   UNL d   1     136.685 107.431 129.340  0.00  0.00     0.025 C 
ATOM     12  C   UNL d   1     133.817 110.262 127.512  0.00  0.00     0.000 C 
ATOM     13  C   UNL d   1     136.733 105.639 127.576  0.00  0.00    -0.047 C 
ATOM     14  C   UNL d   1     137.447 106.343 125.271  0.00  0.00     0.006 C 
ATOM     15  C   UNL d   1     136.863 106.026 128.855  0.00  0.00    -0.035 C 
ATOM     16  C   UNL d   1     134.997 106.339 125.918  0.00  0.00     0.004 C 
ATOM     17  C   UNL d   1     136.894 104.178 127.204  0.00  0.00     0.051 C 
ATOM     18  C   UNL d   1     137.570 104.871 124.874  0.00  0.00     0.030 C 
ATOM     19  C   UNL d   1     137.905 103.990 126.075  0.00  0.00     0.115 C 
ENDROOT
BRANCH   5  20
ATOM     20  C   UNL d   1     134.362 113.228 128.063  0.00  0.00     0.000 C 
ATOM     21  C   UNL d   1     134.666 113.933 126.735  0.00  0.00     0.000 C 
BRANCH  20  22
ATOM     22  C   UNL d   1     134.316 114.251 129.234  0.00  0.00     0.000 C 
BRANCH  22  23
ATOM     23  C   UNL d   1     133.013 114.361 130.041  0.00  0.00     0.000 C 
BRANCH  23  24
ATOM     24  C   UNL d   1     131.986 113.242 129.828  0.00  0.00     0.000 C 
BRANCH  24  25
ATOM     25  C   UNL d   1     131.675 112.387 131.070  0.00  0.00     0.000 C 
ATOM     26  C   UNL d   1     131.870 110.893 130.798  0.00  0.00     0.000 C 
ATOM     27  C   UNL d   1     132.559 112.820 132.242  0.00  0.00     0.000 C 
ENDBRANCH  24  25
ENDBRANCH  23  24
ENDBRANCH  22  23
ENDBRANCH  20  22
ENDBRANCH   5  20
BRANCH  19  28
ATOM     28  O   UNL d   1     137.896 102.621 125.673  0.00  0.00    -0.385 OA
ATOM     29  H   UNL d   1     137.277 102.540 124.925  0.00  0.00     0.210 HD
ENDBRANCH  19  28
TORSDOF 6
ENDMDL
MODEL 14
REMARK VINA RESULT:    -7.033     32.951     38.272
REMARK INTER + INTRA:         -10.024
REMARK INTER:                  -8.781
REMARK INTRA:                  -1.244
REMARK UNBOUND:                -0.730
REMARK  6 active torsions:
REMARK  status: ('A' for Active; 'I' for Inactive)
REMARK    1  A    between atoms: O_1  and  C_22 
REMARK    2  A    between atoms: C_6  and  C_13 
REMARK    3  A    between atoms: C_13  and  C_21 
REMARK    4  A    between atoms: C_21  and  C_24 
REMARK    5  A    between atoms: C_24  and  C_25 
REMARK    6  A    between atoms: C_25  and  C_26 
ROOT
ATOM      1  C   UNL d   1     126.804 126.076 120.336  0.00  0.00     0.000 C 
ATOM      2  C   UNL d   1     125.827 126.950 121.163  0.00  0.00     0.000 C 
ATOM      3  C   UNL d   1     125.071 126.138 122.215  0.00  0.00     0.005 C 
ATOM      4  C   UNL d   1     126.080 125.489 123.207  0.00  0.00     0.004 C 
ATOM      5  C   UNL d   1     127.292 127.102 119.263  0.00  0.00     0.000 C 
ATOM      6  C   UNL d   1     127.889 125.635 121.338  0.00  0.00     0.000 C 
ATOM      7  C   UNL d   1     125.339 124.546 124.238  0.00  0.00     0.015 C 
ATOM      8  C   UNL d   1     125.019 127.686 120.111  0.00  0.00     0.000 C 
ATOM      9  C   UNL d   1     127.297 124.822 122.503  0.00  0.00     0.000 C 
ATOM     10  C   UNL d   1     126.053 128.019 119.032  0.00  0.00     0.000 C 
ATOM     11  C   UNL d   1     124.052 126.995 122.979  0.00  0.00     0.025 C 
ATOM     12  C   UNL d   1     126.097 124.859 119.688  0.00  0.00     0.000 C 
ATOM     13  C   UNL d   1     124.046 125.202 124.742  0.00  0.00    -0.047 C 
ATOM     14  C   UNL d   1     126.285 124.308 125.451  0.00  0.00     0.006 C 
ATOM     15  C   UNL d   1     123.506 126.299 124.186  0.00  0.00    -0.035 C 
ATOM     16  C   UNL d   1     124.976 123.185 123.594  0.00  0.00     0.004 C 
ATOM     17  C   UNL d   1     123.382 124.554 125.942  0.00  0.00     0.051 C 
ATOM     18  C   UNL d   1     125.617 123.613 126.639  0.00  0.00     0.030 C 
ATOM     19  C   UNL d   1     124.365 124.357 127.094  0.00  0.00     0.115 C 
ENDROOT
BRANCH   5  20
ATOM     20  C   UNL d   1     127.893 126.592 117.907  0.00  0.00     0.000 C 
ATOM     21  C   UNL d   1     129.196 127.306 117.529  0.00  0.00     0.000 C 
BRANCH  20  22
ATOM     22  C   UNL d   1     126.830 126.748 116.781  0.00  0.00     0.000 C 
BRANCH  22  23
ATOM     23  C   UNL d   1     126.337 125.473 116.079  0.00  0.00     0.000 C 
BRANCH  23  24
ATOM     24  C   UNL d   1     126.862 125.235 114.658  0.00  0.00     0.000 C 
BRANCH  24  25
ATOM     25  C   UNL d   1     128.146 124.390 114.561  0.00  0.00     0.000 C 
ATOM     26  C   UNL d   1     129.394 125.263 114.407  0.00  0.00     0.000 C 
ATOM     27  C   UNL d   1     128.285 123.502 115.801  0.00  0.00     0.000 C 
ENDBRANCH  24  25
ENDBRANCH  23  24
ENDBRANCH  22  23
ENDBRANCH  20  22
ENDBRANCH   5  20
BRANCH  19  28
ATOM     28  O   UNL d   1     123.720 123.611 128.125  0.00  0.00    -0.385 OA
ATOM     29  H   UNL d   1     122.759 123.736 128.019  0.00  0.00     0.210 HD
ENDBRANCH  19  28
TORSDOF 6
ENDMDL
MODEL 15
REMARK VINA RESULT:    -6.929     31.396     34.412
REMARK INTER + INTRA:          -9.888
REMARK INTER:                  -9.136
REMARK INTRA:                  -0.752
REMARK UNBOUND:                -0.730
REMARK  6 active torsions:
REMARK  status: ('A' for Active; 'I' for Inactive)
REMARK    1  A    between atoms: O_1  and  C_22 
REMARK    2  A    between atoms: C_6  and  C_13 
REMARK    3  A    between atoms: C_13  and  C_21 
REMARK    4  A    between atoms: C_21  and  C_24 
REMARK    5  A    between atoms: C_24  and  C_25 
REMARK    6  A    between atoms: C_25  and  C_26 
ROOT
ATOM      1  C   UNL d   1      99.386 145.800 168.996  0.00  0.00     0.000 C 
ATOM      2  C   UNL d   1      99.224 147.295 169.372  0.00  0.00     0.000 C 
ATOM      3  C   UNL d   1      98.650 147.482 170.777  0.00  0.00     0.005 C 
ATOM      4  C   UNL d   1      99.599 146.832 171.825  0.00  0.00     0.004 C 
ATOM      5  C   UNL d   1      99.813 145.909 167.498  0.00  0.00     0.000 C 
ATOM      6  C   UNL d   1     100.486 145.271 169.938  0.00  0.00     0.000 C 
ATOM      7  C   UNL d   1      98.977 146.903 173.278  0.00  0.00     0.015 C 
ATOM      8  C   UNL d   1      98.456 147.881 168.201  0.00  0.00     0.000 C 
ATOM      9  C   UNL d   1     100.092 145.413 171.418  0.00  0.00     0.000 C 
ATOM     10  C   UNL d   1      99.059 147.174 166.986  0.00  0.00     0.000 C 
ATOM     11  C   UNL d   1      98.422 148.963 171.112  0.00  0.00     0.025 C 
ATOM     12  C   UNL d   1      98.065 145.007 169.161  0.00  0.00     0.000 C 
ATOM     13  C   UNL d   1      98.343 148.279 173.531  0.00  0.00    -0.047 C 
ATOM     14  C   UNL d   1     100.121 146.682 174.311  0.00  0.00     0.006 C 
ATOM     15  C   UNL d   1      98.128 149.184 172.562  0.00  0.00    -0.035 C 
ATOM     16  C   UNL d   1      97.888 145.821 173.477  0.00  0.00     0.004 C 
ATOM     17  C   UNL d   1      97.967 148.597 174.965  0.00  0.00     0.051 C 
ATOM     18  C   UNL d   1      99.718 146.963 175.760  0.00  0.00     0.030 C 
ATOM     19  C   UNL d   1      99.135 148.364 175.921  0.00  0.00     0.115 C 
ENDROOT
BRANCH   5  20
ATOM     20  C   UNL d   1      99.613 144.689 166.534  0.00  0.00     0.000 C 
ATOM     21  C   UNL d   1      98.135 144.371 166.275  0.00  0.00     0.000 C 
BRANCH  20  22
ATOM     22  C   UNL d   1     100.353 143.448 167.112  0.00  0.00     0.000 C 
BRANCH  22  23
ATOM     23  C   UNL d   1      99.500 142.292 167.656  0.00  0.00     0.000 C 
BRANCH  23  24
ATOM     24  C   UNL d   1      99.889 141.754 169.039  0.00  0.00     0.000 C 
BRANCH  24  25
ATOM     25  C   UNL d   1      98.712 141.391 169.961  0.00  0.00     0.000 C 
ATOM     26  C   UNL d   1      98.407 139.890 169.935  0.00  0.00     0.000 C 
ATOM     27  C   UNL d   1      99.012 141.833 171.396  0.00  0.00     0.000 C 
ENDBRANCH  24  25
ENDBRANCH  23  24
ENDBRANCH  22  23
ENDBRANCH  20  22
ENDBRANCH   5  20
BRANCH  19  28
ATOM     28  O   UNL d   1      98.674 148.534 177.260  0.00  0.00    -0.385 OA
ATOM     29  H   UNL d   1      98.397 147.658 177.586  0.00  0.00     0.210 HD
ENDBRANCH  19  28
TORSDOF 6
ENDMDL
MODEL 16
REMARK VINA RESULT:    -6.835     26.034     32.094
REMARK INTER + INTRA:          -9.764
REMARK INTER:                  -8.589
REMARK INTRA:                  -1.174
REMARK UNBOUND:                -0.730
REMARK  6 active torsions:
REMARK  status: ('A' for Active; 'I' for Inactive)
REMARK    1  A    between atoms: O_1  and  C_22 
REMARK    2  A    between atoms: C_6  and  C_13 
REMARK    3  A    between atoms: C_13  and  C_21 
REMARK    4  A    between atoms: C_21  and  C_24 
REMARK    5  A    between atoms: C_24  and  C_25 
REMARK    6  A    between atoms: C_25  and  C_26 
ROOT
ATOM      1  C   UNL d   1     111.886 127.559 186.192  0.00  0.00     0.000 C 
ATOM      2  C   UNL d   1     112.201 126.042 186.149  0.00  0.00     0.000 C 
ATOM      3  C   UNL d   1     112.429 125.537 184.723  0.00  0.00     0.005 C 
ATOM      4  C   UNL d   1     113.633 126.287 184.085  0.00  0.00     0.004 C 
ATOM      5  C   UNL d   1     111.539 127.752 187.703  0.00  0.00     0.000 C 
ATOM      6  C   UNL d   1     113.188 128.248 185.741  0.00  0.00     0.000 C 
ATOM      7  C   UNL d   1     113.823 125.874 182.569  0.00  0.00     0.015 C 
ATOM      8  C   UNL d   1     111.080 125.416 186.959  0.00  0.00     0.000 C 
ATOM      9  C   UNL d   1     113.598 127.825 184.320  0.00  0.00     0.000 C 
ATOM     10  C   UNL d   1     110.875 126.403 188.110  0.00  0.00     0.000 C 
ATOM     11  C   UNL d   1     112.666 124.021 184.683  0.00  0.00     0.025 C 
ATOM     12  C   UNL d   1     110.694 127.937 185.276  0.00  0.00     0.000 C 
ATOM     13  C   UNL d   1     113.654 124.358 182.395  0.00  0.00    -0.047 C 
ATOM     14  C   UNL d   1     115.263 126.271 182.131  0.00  0.00     0.006 C 
ATOM     15  C   UNL d   1     113.162 123.553 183.350  0.00  0.00    -0.035 C 
ATOM     16  C   UNL d   1     112.793 126.588 181.659  0.00  0.00     0.004 C 
ATOM     17  C   UNL d   1     114.089 123.778 181.063  0.00  0.00     0.051 C 
ATOM     18  C   UNL d   1     115.677 125.717 180.766  0.00  0.00     0.030 C 
ATOM     19  C   UNL d   1     115.511 124.201 180.700  0.00  0.00     0.115 C 
ENDROOT
BRANCH   5  20
ATOM     20  C   UNL d   1     110.678 128.980 188.159  0.00  0.00     0.000 C 
ATOM     21  C   UNL d   1     111.507 130.257 188.336  0.00  0.00     0.000 C 
BRANCH  20  22
ATOM     22  C   UNL d   1     109.926 128.623 189.474  0.00  0.00     0.000 C 
BRANCH  22  23
ATOM     23  C   UNL d   1     108.444 129.012 189.582  0.00  0.00     0.000 C 
BRANCH  23  24
ATOM     24  C   UNL d   1     108.150 130.453 190.017  0.00  0.00     0.000 C 
BRANCH  24  25
ATOM     25  C   UNL d   1     107.543 131.360 188.932  0.00  0.00     0.000 C 
ATOM     26  C   UNL d   1     108.516 132.460 188.497  0.00  0.00     0.000 C 
ATOM     27  C   UNL d   1     107.131 130.524 187.717  0.00  0.00     0.000 C 
ENDBRANCH  24  25
ENDBRANCH  23  24
ENDBRANCH  22  23
ENDBRANCH  20  22
ENDBRANCH   5  20
BRANCH  19  28
ATOM     28  O   UNL d   1     115.800 123.752 179.377  0.00  0.00    -0.385 OA
ATOM     29  H   UNL d   1     115.068 123.172 179.099  0.00  0.00     0.210 HD
ENDBRANCH  19  28
TORSDOF 6
ENDMDL
MODEL 17
REMARK VINA RESULT:    -6.694     20.116     22.647
REMARK INTER + INTRA:          -9.577
REMARK INTER:                  -7.851
REMARK INTRA:                  -1.726
REMARK UNBOUND:                -0.730
REMARK  6 active torsions:
REMARK  status: ('A' for Active; 'I' for Inactive)
REMARK    1  A    between atoms: O_1  and  C_22 
REMARK    2  A    between atoms: C_6  and  C_13 
REMARK    3  A    between atoms: C_13  and  C_21 
REMARK    4  A    between atoms: C_21  and  C_24 
REMARK    5  A    between atoms: C_24  and  C_25 
REMARK    6  A    between atoms: C_25  and  C_26 
ROOT
ATOM      1  C   UNL d   1     142.127 148.182 158.906  0.00  0.00     0.000 C 
ATOM      2  C   UNL d   1     141.306 149.194 158.067  0.00  0.00     0.000 C 
ATOM      3  C   UNL d   1     140.164 149.821 158.868  0.00  0.00     0.005 C 
ATOM      4  C   UNL d   1     140.737 150.582 160.098  0.00  0.00     0.004 C 
ATOM      5  C   UNL d   1     143.082 147.593 157.820  0.00  0.00     0.000 C 
ATOM      6  C   UNL d   1     142.829 149.034 159.981  0.00  0.00     0.000 C 
ATOM      7  C   UNL d   1     139.576 151.143 161.014  0.00  0.00     0.015 C 
ATOM      8  C   UNL d   1     140.957 148.423 156.808  0.00  0.00     0.000 C 
ATOM      9  C   UNL d   1     141.820 149.778 160.874  0.00  0.00     0.000 C 
ATOM     10  C   UNL d   1     142.226 147.618 156.517  0.00  0.00     0.000 C 
ATOM     11  C   UNL d   1     139.311 150.765 158.009  0.00  0.00     0.025 C 
ATOM     12  C   UNL d   1     141.233 147.086 159.541  0.00  0.00     0.000 C 
ATOM     13  C   UNL d   1     138.457 151.753 160.158  0.00  0.00    -0.047 C 
ATOM     14  C   UNL d   1     140.168 152.255 161.929  0.00  0.00     0.006 C 
ATOM     15  C   UNL d   1     138.371 151.594 158.827  0.00  0.00    -0.035 C 
ATOM     16  C   UNL d   1     138.963 150.025 161.892  0.00  0.00     0.004 C 
ATOM     17  C   UNL d   1     137.421 152.583 160.891  0.00  0.00     0.051 C 
ATOM     18  C   UNL d   1     139.117 153.057 162.699  0.00  0.00     0.030 C 
ATOM     19  C   UNL d   1     138.070 153.656 161.763  0.00  0.00     0.115 C 
ENDROOT
BRANCH   5  20
ATOM     20  C   UNL d   1     143.754 146.194 158.041  0.00  0.00     0.000 C 
ATOM     21  C   UNL d   1     145.185 146.299 158.582  0.00  0.00     0.000 C 
BRANCH  20  22
ATOM     22  C   UNL d   1     143.724 145.390 156.709  0.00  0.00     0.000 C 
BRANCH  22  23
ATOM     23  C   UNL d   1     142.905 144.091 156.672  0.00  0.00     0.000 C 
BRANCH  23  24
ATOM     24  C   UNL d   1     141.623 144.073 157.514  0.00  0.00     0.000 C 
BRANCH  24  25
ATOM     25  C   UNL d   1     140.307 144.086 156.715  0.00  0.00     0.000 C 
ATOM     26  C   UNL d   1     139.245 144.969 157.377  0.00  0.00     0.000 C 
ATOM     27  C   UNL d   1     140.565 144.570 155.286  0.00  0.00     0.000 C 
ENDBRANCH  24  25
ENDBRANCH  23  24
ENDBRANCH  22  23
ENDBRANCH  20  22
ENDBRANCH   5  20
BRANCH  19  28
ATOM     28  O   UNL d   1     137.056 154.295 162.536  0.00  0.00    -0.385 OA
ATOM     29  H   UNL d   1     136.627 154.958 161.965  0.00  0.00     0.210 HD
ENDBRANCH  19  28
TORSDOF 6
ENDMDL
MODEL 18
REMARK VINA RESULT:    -6.578     18.657     21.473
REMARK INTER + INTRA:          -9.424
REMARK INTER:                  -8.121
REMARK INTRA:                  -1.302
REMARK UNBOUND:                -0.730
REMARK  6 active torsions:
REMARK  status: ('A' for Active; 'I' for Inactive)
REMARK    1  A    between atoms: O_1  and  C_22 
REMARK    2  A    between atoms: C_6  and  C_13 
REMARK    3  A    between atoms: C_13  and  C_21 
REMARK    4  A    between atoms: C_21  and  C_24 
REMARK    5  A    between atoms: C_24  and  C_25 
REMARK    6  A    between atoms: C_25  and  C_26 
ROOT
ATOM      1  C   UNL d   1     142.470 140.342 148.381  0.00  0.00     0.000 C 
ATOM      2  C   UNL d   1     143.914 140.364 147.818  0.00  0.00     0.000 C 
ATOM      3  C   UNL d   1     144.968 140.373 148.926  0.00  0.00     0.005 C 
ATOM      4  C   UNL d   1     144.823 139.096 149.804  0.00  0.00     0.004 C 
ATOM      5  C   UNL d   1     141.633 140.506 147.072  0.00  0.00     0.000 C 
ATOM      6  C   UNL d   1     142.329 138.966 149.062  0.00  0.00     0.000 C 
ATOM      7  C   UNL d   1     145.821 139.131 151.030  0.00  0.00     0.015 C 
ATOM      8  C   UNL d   1     143.902 141.517 146.833  0.00  0.00     0.000 C 
ATOM      9  C   UNL d   1     143.351 138.780 150.197  0.00  0.00     0.000 C 
ATOM     10  C   UNL d   1     142.528 141.406 146.167  0.00  0.00     0.000 C 
ATOM     11  C   UNL d   1     146.393 140.470 148.362  0.00  0.00     0.025 C 
ATOM     12  C   UNL d   1     142.211 141.500 149.378  0.00  0.00     0.000 C 
ATOM     13  C   UNL d   1     147.203 139.635 150.591  0.00  0.00    -0.047 C 
ATOM     14  C   UNL d   1     145.969 137.683 151.582  0.00  0.00     0.006 C 
ATOM     15  C   UNL d   1     147.440 140.203 149.397  0.00  0.00    -0.035 C 
ATOM     16  C   UNL d   1     145.298 140.059 152.154  0.00  0.00     0.004 C 
ATOM     17  C   UNL d   1     148.336 139.451 151.582  0.00  0.00     0.051 C 
ATOM     18  C   UNL d   1     147.086 137.517 152.614  0.00  0.00     0.030 C 
ATOM     19  C   UNL d   1     148.427 138.009 152.076  0.00  0.00     0.115 C 
ENDROOT
BRANCH   5  20
ATOM     20  C   UNL d   1     140.162 141.042 147.144  0.00  0.00     0.000 C 
ATOM     21  C   UNL d   1     139.128 140.011 146.675  0.00  0.00     0.000 C 
BRANCH  20  22
ATOM     22  C   UNL d   1     140.049 142.354 146.315  0.00  0.00     0.000 C 
BRANCH  22  23
ATOM     23  C   UNL d   1     139.597 143.628 147.044  0.00  0.00     0.000 C 
BRANCH  23  24
ATOM     24  C   UNL d   1     139.165 143.456 148.506  0.00  0.00     0.000 C 
BRANCH  24  25
ATOM     25  C   UNL d   1     137.661 143.646 148.776  0.00  0.00     0.000 C 
ATOM     26  C   UNL d   1     136.854 142.397 148.413  0.00  0.00     0.000 C 
ATOM     27  C   UNL d   1     137.432 144.001 150.248  0.00  0.00     0.000 C 
ENDBRANCH  24  25
ENDBRANCH  23  24
ENDBRANCH  22  23
ENDBRANCH  20  22
ENDBRANCH   5  20
BRANCH  19  28
ATOM     28  O   UNL d   1     149.406 137.938 153.110  0.00  0.00    -0.385 OA
ATOM     29  H   UNL d   1     149.138 138.561 153.810  0.00  0.00     0.210 HD
ENDBRANCH  19  28
TORSDOF 6
ENDMDL
MODEL 19
REMARK VINA RESULT:    -6.574     33.766     37.423
REMARK INTER + INTRA:          -9.418
REMARK INTER:                  -8.633
REMARK INTRA:                  -0.784
REMARK UNBOUND:                -0.730
REMARK  6 active torsions:
REMARK  status: ('A' for Active; 'I' for Inactive)
REMARK    1  A    between atoms: O_1  and  C_22 
REMARK    2  A    between atoms: C_6  and  C_13 
REMARK    3  A    between atoms: C_13  and  C_21 
REMARK    4  A    between atoms: C_21  and  C_24 
REMARK    5  A    between atoms: C_24  and  C_25 
REMARK    6  A    between atoms: C_25  and  C_26 
ROOT
ATOM      1  C   UNL d   1      98.476 148.585 174.163  0.00  0.00     0.000 C 
ATOM      2  C   UNL d   1      99.399 147.340 174.158  0.00  0.00     0.000 C 
ATOM      3  C   UNL d   1      98.840 146.205 173.298  0.00  0.00     0.005 C 
ATOM      4  C   UNL d   1      98.687 146.686 171.826  0.00  0.00     0.004 C 
ATOM      5  C   UNL d   1      99.188 149.485 175.223  0.00  0.00     0.000 C 
ATOM      6  C   UNL d   1      98.533 149.127 172.721  0.00  0.00     0.000 C 
ATOM      7  C   UNL d   1      98.000 145.575 170.932  0.00  0.00     0.015 C 
ATOM      8  C   UNL d   1      99.646 147.066 175.630  0.00  0.00     0.000 C 
ATOM      9  C   UNL d   1      98.033 148.092 171.698  0.00  0.00     0.000 C 
ATOM     10  C   UNL d   1      99.789 148.464 176.236  0.00  0.00     0.000 C 
ATOM     11  C   UNL d   1      99.722 144.950 173.359  0.00  0.00     0.025 C 
ATOM     12  C   UNL d   1      97.026 148.238 174.584  0.00  0.00     0.000 C 
ATOM     13  C   UNL d   1      98.572 144.188 171.256  0.00  0.00    -0.047 C 
ATOM     14  C   UNL d   1      98.291 145.900 169.438  0.00  0.00     0.006 C 
ATOM     15  C   UNL d   1      99.351 143.938 172.321  0.00  0.00    -0.035 C 
ATOM     16  C   UNL d   1      96.469 145.537 171.162  0.00  0.00     0.004 C 
ATOM     17  C   UNL d   1      98.226 143.072 170.289  0.00  0.00     0.051 C 
ATOM     18  C   UNL d   1      97.898 144.786 168.467  0.00  0.00     0.030 C 
ATOM     19  C   UNL d   1      98.543 143.456 168.846  0.00  0.00     0.115 C 
ENDROOT
BRANCH   5  20
ATOM     20  C   UNL d   1      98.389 150.619 175.952  0.00  0.00     0.000 C 
ATOM     21  C   UNL d   1      98.211 151.873 175.088  0.00  0.00     0.000 C 
BRANCH  20  22
ATOM     22  C   UNL d   1      99.096 150.968 177.294  0.00  0.00     0.000 C 
BRANCH  22  23
ATOM     23  C   UNL d   1      99.277 152.452 177.645  0.00  0.00     0.000 C 
BRANCH  23  24
ATOM     24  C   UNL d   1      98.703 152.906 178.993  0.00  0.00     0.000 C 
BRANCH  24  25
ATOM     25  C   UNL d   1      98.121 154.331 179.017  0.00  0.00     0.000 C 
ATOM     26  C   UNL d   1      98.886 155.245 179.978  0.00  0.00     0.000 C 
ATOM     27  C   UNL d   1      98.139 154.930 177.608  0.00  0.00     0.000 C 
ENDBRANCH  24  25
ENDBRANCH  23  24
ENDBRANCH  22  23
ENDBRANCH  20  22
ENDBRANCH   5  20
BRANCH  19  28
ATOM     28  O   UNL d   1      98.057 142.431 167.981  0.00  0.00    -0.385 OA
ATOM     29  H   UNL d   1      97.811 142.853 167.137  0.00  0.00     0.210 HD
ENDBRANCH  19  28
TORSDOF 6
ENDMDL
MODEL 20
REMARK VINA RESULT:    -6.534     32.922     35.542
REMARK INTER + INTRA:          -9.366
REMARK INTER:                  -7.950
REMARK INTRA:                  -1.416
REMARK UNBOUND:                -0.730
REMARK  6 active torsions:
REMARK  status: ('A' for Active; 'I' for Inactive)
REMARK    1  A    between atoms: O_1  and  C_22 
REMARK    2  A    between atoms: C_6  and  C_13 
REMARK    3  A    between atoms: C_13  and  C_21 
REMARK    4  A    between atoms: C_21  and  C_24 
REMARK    5  A    between atoms: C_24  and  C_25 
REMARK    6  A    between atoms: C_25  and  C_26 
ROOT
ATOM      1  C   UNL d   1      97.025 143.580 171.018  0.00  0.00     0.000 C 
ATOM      2  C   UNL d   1      98.230 143.499 171.990  0.00  0.00     0.000 C 
ATOM      3  C   UNL d   1      98.713 144.882 172.431  0.00  0.00     0.005 C 
ATOM      4  C   UNL d   1      97.565 145.633 173.165  0.00  0.00     0.004 C 
ATOM      5  C   UNL d   1      96.863 142.080 170.613  0.00  0.00     0.000 C 
ATOM      6  C   UNL d   1      95.868 144.143 171.866  0.00  0.00     0.000 C 
ATOM      7  C   UNL d   1      97.993 147.111 173.531  0.00  0.00     0.015 C 
ATOM      8  C   UNL d   1      99.214 142.593 171.273  0.00  0.00     0.000 C 
ATOM      9  C   UNL d   1      96.195 145.536 172.432  0.00  0.00     0.000 C 
ATOM     10  C   UNL d   1      98.320 141.528 170.634  0.00  0.00     0.000 C 
ATOM     11  C   UNL d   1      99.953 144.796 173.333  0.00  0.00     0.025 C 
ATOM     12  C   UNL d   1      97.321 144.478 169.791  0.00  0.00     0.000 C 
ATOM     13  C   UNL d   1      99.430 147.142 174.072  0.00  0.00    -0.047 C 
ATOM     14  C   UNL d   1      97.032 147.640 174.635  0.00  0.00     0.006 C 
ATOM     15  C   UNL d   1     100.272 146.099 173.996  0.00  0.00    -0.035 C 
ATOM     16  C   UNL d   1      97.918 148.040 172.295  0.00  0.00     0.004 C 
ATOM     17  C   UNL d   1      99.876 148.433 174.731  0.00  0.00     0.051 C 
ATOM     18  C   UNL d   1      97.468 148.965 175.263  0.00  0.00     0.030 C 
ATOM     19  C   UNL d   1      98.892 148.888 175.806  0.00  0.00     0.115 C 
ENDROOT
BRANCH   5  20
ATOM     20  C   UNL d   1      96.122 141.702 169.285  0.00  0.00     0.000 C 
ATOM     21  C   UNL d   1      94.633 141.403 169.497  0.00  0.00     0.000 C 
BRANCH  20  22
ATOM     22  C   UNL d   1      96.840 140.493 168.619  0.00  0.00     0.000 C 
BRANCH  22  23
ATOM     23  C   UNL d   1      96.217 139.100 168.800  0.00  0.00     0.000 C 
BRANCH  23  24
ATOM     24  C   UNL d   1      97.171 137.982 169.237  0.00  0.00     0.000 C 
BRANCH  24  25
ATOM     25  C   UNL d   1      97.108 137.605 170.728  0.00  0.00     0.000 C 
ATOM     26  C   UNL d   1      98.421 137.918 171.452  0.00  0.00     0.000 C 
ATOM     27  C   UNL d   1      95.953 138.344 171.409  0.00  0.00     0.000 C 
ENDBRANCH  24  25
ENDBRANCH  23  24
ENDBRANCH  22  23
ENDBRANCH  20  22
ENDBRANCH   5  20
BRANCH  19  28
ATOM     28  O   UNL d   1      99.289 150.175 176.276  0.00  0.00    -0.385 OA
ATOM     29  H   UNL d   1      98.579 150.802 176.046  0.00  0.00     0.210 HD
ENDBRANCH  19  28
TORSDOF 6
ENDMDL
