@<TRIPOS>MOLECULE
5997
 74 77 0 0 0
SMALL
GASTEIGER
****

@<TRIPOS>ATOM
      1 O           5.6282    0.2289   -0.0256 O.3     1  UNL1       -0.3915
      2 C          -3.0635   -0.6198    0.0601 C.3     1  UNL1       -0.0259
      3 C          -2.3537    0.6771   -0.4075 C.3     1  UNL1       -0.0320
      4 C          -0.9158    0.7687    0.1059 C.3     1  UNL1       -0.0307
      5 C          -0.0891   -0.4381   -0.4228 C.3     1  UNL1       -0.0285
      6 C          -4.5184   -0.3693   -0.4497 C.3     1  UNL1       -0.0328
      7 C          -2.3200   -1.7606   -0.6620 C.3     1  UNL1       -0.0468
      8 C           1.3716   -0.4384    0.1841 C.3     1  UNL1       -0.0078
      9 C          -3.3226    1.7794   -0.0206 C.3     1  UNL1       -0.0492
     10 C          -0.8280   -1.8007   -0.2892 C.3     1  UNL1       -0.0486
     11 C          -4.6946    1.1747   -0.3297 C.3     1  UNL1       -0.0492
     12 C          -0.2458    2.0896   -0.2981 C.3     1  UNL1       -0.0311
     13 C          -5.7197   -1.1392    0.1983 C.3     1  UNL1       -0.0405
     14 C          -3.0155   -0.7935    1.5993 C.3     1  UNL1       -0.0590
     15 C           1.9583    0.9805    0.1883 C.2     1  UNL1       -0.0648
     16 C           2.2714   -1.3481   -0.7025 C.3     1  UNL1       -0.0413
     17 C           1.2297    2.0842   -0.0513 C.2     1  UNL1       -0.0839
     18 C           1.3762   -0.9712    1.6384 C.3     1  UNL1       -0.0556
     19 C           3.4436    1.0982    0.4684 C.3     1  UNL1       -0.0051
     20 C           3.7640   -1.2561   -0.3834 C.3     1  UNL1       -0.0258
     21 C          -7.0354   -0.7622   -0.5439 C.3     1  UNL1       -0.0502
     22 C           4.2643    0.1848   -0.4413 C.3     1  UNL1        0.0590
     23 C          -5.5171   -2.6590    0.2090 C.3     1  UNL1       -0.0621
     24 C          -8.3258   -1.4832   -0.1277 C.3     1  UNL1       -0.0526
     25 C          -8.7418   -1.3372    1.3412 C.3     1  UNL1       -0.0507
     26 C          -8.9750    0.1071    1.8206 C.3     1  UNL1       -0.0467
     27 C          -9.3265    0.1157    3.3114 C.3     1  UNL1       -0.0627
     28 C         -10.0827    0.8017    1.0241 C.3     1  UNL1       -0.0627
     29 H          -2.3087    0.6809   -1.5101 H       1  UNL1        0.0309
     30 H          -0.9209    0.7532    1.2025 H       1  UNL1        0.0309
     31 H           0.0115   -0.2729   -1.5078 H       1  UNL1        0.0312
     32 H          -4.5310   -0.6068   -1.5245 H       1  UNL1        0.0309
     33 H          -2.7698   -2.7335   -0.4439 H       1  UNL1        0.0271
     34 H          -2.3962   -1.6285   -1.7503 H       1  UNL1        0.0271
     35 H          -3.1540    2.6998   -0.5896 H       1  UNL1        0.0268
     36 H          -3.2432    2.0302    1.0419 H       1  UNL1        0.0268
     37 H          -0.7558   -2.1891    0.7298 H       1  UNL1        0.0268
     38 H          -0.3357   -2.5431   -0.9290 H       1  UNL1        0.0268
     39 H          -5.0718    1.5695   -1.2817 H       1  UNL1        0.0268
     40 H          -5.4060    1.4638    0.4501 H       1  UNL1        0.0268
     41 H          -0.6944    2.9095    0.2762 H       1  UNL1        0.0310
     42 H          -0.4217    2.3070   -1.3568 H       1  UNL1        0.0310
     43 H          -5.8176   -0.8096    1.2403 H       1  UNL1        0.0301
     44 H          -3.5050    0.0350    2.1193 H       1  UNL1        0.0235
     45 H          -3.4997   -1.7132    1.9280 H       1  UNL1        0.0235
     46 H          -1.9960   -0.8533    1.9888 H       1  UNL1        0.0235
     47 H           2.1366   -1.0790   -1.7590 H       1  UNL1        0.0274
     48 H           1.9626   -2.3964   -0.6098 H       1  UNL1        0.0274
     49 H           1.7090    3.0621   -0.0557 H       1  UNL1        0.0572
     50 H           0.6765   -0.4207    2.2754 H       1  UNL1        0.0238
     51 H           1.1112   -2.0323    1.6838 H       1  UNL1        0.0238
     52 H           2.3609   -0.8920    2.1104 H       1  UNL1        0.0238
     53 H           3.6431    0.8587    1.5203 H       1  UNL1        0.0335
     54 H           3.7970    2.1302    0.3455 H       1  UNL1        0.0335
     55 H           4.3303   -1.8681   -1.0973 H       1  UNL1        0.0290
     56 H           3.9758   -1.6910    0.6007 H       1  UNL1        0.0290
     57 H          -7.2082    0.3157   -0.4512 H       1  UNL1        0.0268
     58 H          -6.8942   -0.9467   -1.6174 H       1  UNL1        0.0268
     59 H           4.2169    0.5560   -1.4715 H       1  UNL1        0.0596
     60 H          -5.3813   -3.0538   -0.8022 H       1  UNL1        0.0233
     61 H          -4.6522   -2.9567    0.8021 H       1  UNL1        0.0233
     62 H          -6.3670   -3.1720    0.6679 H       1  UNL1        0.0233
     63 H          -9.1386   -1.1140   -0.7655 H       1  UNL1        0.0265
     64 H          -8.2472   -2.5498   -0.3675 H       1  UNL1        0.0265
     65 H           6.1360   -0.3430   -0.6298 H       1  UNL1        0.2098
     66 H          -9.6671   -1.9114    1.4845 H       1  UNL1        0.0268
     67 H          -7.9898   -1.8162    1.9798 H       1  UNL1        0.0268
     68 H          -8.0504    0.6828    1.6997 H       1  UNL1        0.0295
     69 H          -8.5047   -0.2992    3.9050 H       1  UNL1        0.0232
     70 H          -9.5075    1.1367    3.6645 H       1  UNL1        0.0232
     71 H         -10.2249   -0.4768    3.5153 H       1  UNL1        0.0232
     72 H         -11.0166    0.2308    1.0629 H       1  UNL1        0.0232
     73 H         -10.2807    1.8024    1.4217 H       1  UNL1        0.0232
     74 H          -9.8009    0.9221   -0.0260 H       1  UNL1        0.0232
@<TRIPOS>BOND
     1     1    22    1
     2    26    28    1
     3     2     3    1
     4     2     6    1
     5     2     7    1
     6     2    14    1
     7     3     4    1
     8     3     9    1
     9    26    27    1
    10     4     5    1
    11     4    12    1
    12    25    26    1
    13     5     8    1
    14     5    10    1
    15    24    25    1
    16     6    11    1
    17    21    24    1
    18     7    10    1
    19    20    22    1
    20    19    22    1
    21     8    15    1
    22     8    16    1
    23     8    18    1
    24     9    11    1
    25    16    20    1
    26    15    19    1
    27    15    17    2
    28    12    17    1
    29    11    40    1
    30    12    41    1
    31    12    42    1
    32    11    39    1
    33    10    38    1
    34    13    43    1
    35    14    44    1
    36    14    45    1
    37    14    46    1
    38    10    37    1
    39     9    36    1
    40     9    35    1
    41    16    47    1
    42    16    48    1
    43    17    49    1
    44    18    50    1
    45    18    51    1
    46    18    52    1
    47     7    34    1
    48    19    53    1
    49    19    54    1
    50     7    33    1
    51    20    55    1
    52    20    56    1
    53    21    57    1
    54    21    58    1
    55    22    59    1
    56    23    60    1
    57    23    61    1
    58    23    62    1
    59     5    31    1
    60    24    63    1
    61    24    64    1
    62     4    30    1
    63    25    66    1
    64    25    67    1
    65     3    29    1
    66     1    65    1
    67    26    68    1
    68    27    69    1
    69    27    70    1
    70    27    71    1
    71    28    72    1
    72    28    73    1
    73    28    74    1
    74     6    32    1
    75     6    13    1
    76    13    21    1
    77    13    23    1
