MODEL 1
REMARK VINA RESULT:    -9.207      0.000      0.000
REMARK INTER + INTRA:         -12.829
REMARK INTER:                 -12.167
REMARK INTRA:                  -0.662
REMARK UNBOUND:                -0.662
REMARK  6 active torsions:
REMARK  status: ('A' for Active; 'I' for Inactive)
REMARK    1  A    between atoms: O_1  and  C_22 
REMARK    2  A    between atoms: C_6  and  C_13 
REMARK    3  A    between atoms: C_13  and  C_21 
REMARK    4  A    between atoms: C_21  and  C_24 
REMARK    5  A    between atoms: C_24  and  C_25 
REMARK    6  A    between atoms: C_25  and  C_26 
ROOT
ATOM      1  C   UNL d   1     127.978 131.013 158.723  0.00  0.00     0.000 C 
ATOM      2  C   UNL d   1     127.602 132.126 159.734  0.00  0.00     0.000 C 
ATOM      3  C   UNL d   1     126.662 131.622 160.830  0.00  0.00     0.005 C 
ATOM      4  C   UNL d   1     127.348 130.473 161.625  0.00  0.00     0.004 C 
ATOM      5  C   UNL d   1     128.777 131.830 157.658  0.00  0.00     0.000 C 
ATOM      6  C   UNL d   1     128.827 130.012 159.531  0.00  0.00     0.000 C 
ATOM      7  C   UNL d   1     126.359 129.848 162.690  0.00  0.00     0.015 C 
ATOM      8  C   UNL d   1     127.128 133.269 158.856  0.00  0.00     0.000 C 
ATOM      9  C   UNL d   1     128.043 129.420 160.715  0.00  0.00     0.000 C 
ATOM     10  C   UNL d   1     128.087 133.228 157.664  0.00  0.00     0.000 C 
ATOM     11  C   UNL d   1     126.236 132.747 161.784  0.00  0.00     0.025 C 
ATOM     12  C   UNL d   1     126.729 130.334 158.108  0.00  0.00     0.000 C 
ATOM     13  C   UNL d   1     125.573 130.950 163.414  0.00  0.00    -0.047 C 
ATOM     14  C   UNL d   1     127.201 129.064 163.739  0.00  0.00     0.006 C 
ATOM     15  C   UNL d   1     125.550 132.231 163.010  0.00  0.00    -0.035 C 
ATOM     16  C   UNL d   1     125.347 128.887 162.020  0.00  0.00     0.004 C 
ATOM     17  C   UNL d   1     124.805 130.531 164.652  0.00  0.00     0.051 C 
ATOM     18  C   UNL d   1     126.407 128.607 164.964  0.00  0.00     0.030 C 
ATOM     19  C   UNL d   1     125.692 129.775 165.639  0.00  0.00     0.115 C 
ENDROOT
BRANCH   5  20
ATOM     20  C   UNL d   1     128.939 131.273 156.202  0.00  0.00     0.000 C 
ATOM     21  C   UNL d   1     130.405 131.058 155.805  0.00  0.00     0.000 C 
BRANCH  20  22
ATOM     22  C   UNL d   1     128.230 132.231 155.201  0.00  0.00     0.000 C 
BRANCH  22  23
ATOM     23  C   UNL d   1     129.112 133.105 154.296  0.00  0.00     0.000 C 
BRANCH  23  24
ATOM     24  C   UNL d   1     128.858 132.993 152.788  0.00  0.00     0.000 C 
BRANCH  24  25
ATOM     25  C   UNL d   1     128.885 134.324 152.014  0.00  0.00     0.000 C 
ATOM     26  C   UNL d   1     129.341 134.132 150.564  0.00  0.00     0.000 C 
ATOM     27  C   UNL d   1     127.500 134.975 152.038  0.00  0.00     0.000 C 
ENDBRANCH  24  25
ENDBRANCH  23  24
ENDBRANCH  22  23
ENDBRANCH  20  22
ENDBRANCH   5  20
BRANCH  19  28
ATOM     28  O   UNL d   1     124.879 129.281 166.702  0.00  0.00    -0.385 OA
ATOM     29  H   UNL d   1     124.831 129.978 167.381  0.00  0.00     0.210 HD
ENDBRANCH  19  28
TORSDOF 6
ENDMDL
MODEL 2
REMARK VINA RESULT:    -8.780     13.913     15.852
REMARK INTER + INTRA:         -12.265
REMARK INTER:                 -10.529
REMARK INTRA:                  -1.735
REMARK UNBOUND:                -0.662
REMARK  6 active torsions:
REMARK  status: ('A' for Active; 'I' for Inactive)
REMARK    1  A    between atoms: O_1  and  C_22 
REMARK    2  A    between atoms: C_6  and  C_13 
REMARK    3  A    between atoms: C_13  and  C_21 
REMARK    4  A    between atoms: C_21  and  C_24 
REMARK    5  A    between atoms: C_24  and  C_25 
REMARK    6  A    between atoms: C_25  and  C_26 
ROOT
ATOM      1  C   UNL d   1     126.675 125.689 171.744  0.00  0.00     0.000 C 
ATOM      2  C   UNL d   1     128.056 126.030 171.128  0.00  0.00     0.000 C 
ATOM      3  C   UNL d   1     129.036 124.859 171.215  0.00  0.00     0.005 C 
ATOM      4  C   UNL d   1     128.464 123.635 170.443  0.00  0.00     0.004 C 
ATOM      5  C   UNL d   1     125.962 127.076 171.673  0.00  0.00     0.000 C 
ATOM      6  C   UNL d   1     126.079 124.615 170.813  0.00  0.00     0.000 C 
ATOM      7  C   UNL d   1     129.397 122.368 170.611  0.00  0.00     0.015 C 
ATOM      8  C   UNL d   1     128.440 127.335 171.800  0.00  0.00     0.000 C 
ATOM      9  C   UNL d   1     126.963 123.357 170.747  0.00  0.00     0.000 C 
ATOM     10  C   UNL d   1     127.118 128.102 171.877  0.00  0.00     0.000 C 
ATOM     11  C   UNL d   1     130.423 125.229 170.670  0.00  0.00     0.025 C 
ATOM     12  C   UNL d   1     126.794 125.177 173.202  0.00  0.00     0.000 C 
ATOM     13  C   UNL d   1     130.876 122.763 170.484  0.00  0.00    -0.047 C 
ATOM     14  C   UNL d   1     129.052 121.352 169.484  0.00  0.00     0.006 C 
ATOM     15  C   UNL d   1     131.306 124.035 170.489  0.00  0.00    -0.035 C 
ATOM     16  C   UNL d   1     129.189 121.696 171.991  0.00  0.00     0.004 C 
ATOM     17  C   UNL d   1     131.868 121.626 170.335  0.00  0.00     0.051 C 
ATOM     18  C   UNL d   1     130.035 120.185 169.370  0.00  0.00     0.030 C 
ATOM     19  C   UNL d   1     131.472 120.674 169.208  0.00  0.00     0.115 C 
ENDROOT
BRANCH   5  20
ATOM     20  C   UNL d   1     124.747 127.382 172.616  0.00  0.00     0.000 C 
ATOM     21  C   UNL d   1     123.394 127.066 171.966  0.00  0.00     0.000 C 
BRANCH  20  22
ATOM     22  C   UNL d   1     124.808 128.869 173.071  0.00  0.00     0.000 C 
BRANCH  22  23
ATOM     23  C   UNL d   1     124.991 129.155 174.569  0.00  0.00     0.000 C 
BRANCH  23  24
ATOM     24  C   UNL d   1     125.852 128.155 175.351  0.00  0.00     0.000 C 
BRANCH  24  25
ATOM     25  C   UNL d   1     127.241 128.668 175.773  0.00  0.00     0.000 C 
ATOM     26  C   UNL d   1     128.353 127.688 175.388  0.00  0.00     0.000 C 
ATOM     27  C   UNL d   1     127.513 130.034 175.137  0.00  0.00     0.000 C 
ENDBRANCH  24  25
ENDBRANCH  23  24
ENDBRANCH  22  23
ENDBRANCH  20  22
ENDBRANCH   5  20
BRANCH  19  28
ATOM     28  O   UNL d   1     132.356 119.555 169.221  0.00  0.00    -0.385 OA
ATOM     29  H   UNL d   1     132.707 119.449 168.318  0.00  0.00     0.210 HD
ENDBRANCH  19  28
TORSDOF 6
ENDMDL
MODEL 3
REMARK VINA RESULT:    -8.537     13.546     16.172
REMARK INTER + INTRA:         -11.944
REMARK INTER:                 -10.287
REMARK INTRA:                  -1.657
REMARK UNBOUND:                -0.662
REMARK  6 active torsions:
REMARK  status: ('A' for Active; 'I' for Inactive)
REMARK    1  A    between atoms: O_1  and  C_22 
REMARK    2  A    between atoms: C_6  and  C_13 
REMARK    3  A    between atoms: C_13  and  C_21 
REMARK    4  A    between atoms: C_21  and  C_24 
REMARK    5  A    between atoms: C_24  and  C_25 
REMARK    6  A    between atoms: C_25  and  C_26 
ROOT
ATOM      1  C   UNL d   1     128.660 126.366 173.083  0.00  0.00     0.000 C 
ATOM      2  C   UNL d   1     128.677 124.920 173.642  0.00  0.00     0.000 C 
ATOM      3  C   UNL d   1     128.983 123.883 172.560  0.00  0.00     0.005 C 
ATOM      4  C   UNL d   1     130.381 124.166 171.939  0.00  0.00     0.004 C 
ATOM      5  C   UNL d   1     128.168 127.166 174.331  0.00  0.00     0.000 C 
ATOM      6  C   UNL d   1     130.118 126.651 172.674  0.00  0.00     0.000 C 
ATOM      7  C   UNL d   1     130.680 123.183 170.736  0.00  0.00     0.015 C 
ATOM      8  C   UNL d   1     127.363 124.805 174.391  0.00  0.00     0.000 C 
ATOM      9  C   UNL d   1     130.617 125.667 171.602  0.00  0.00     0.000 C 
ATOM     10  C   UNL d   1     127.208 126.176 175.056  0.00  0.00     0.000 C 
ATOM     11  C   UNL d   1     128.925 122.449 173.107  0.00  0.00     0.025 C 
ATOM     12  C   UNL d   1     127.691 126.519 171.883  0.00  0.00     0.000 C 
ATOM     13  C   UNL d   1     130.243 121.753 171.082  0.00  0.00    -0.047 C 
ATOM     14  C   UNL d   1     132.213 123.187 170.469  0.00  0.00     0.006 C 
ATOM     15  C   UNL d   1     129.486 121.446 172.148  0.00  0.00    -0.035 C 
ATOM     16  C   UNL d   1     129.933 123.624 169.453  0.00  0.00     0.004 C 
ATOM     17  C   UNL d   1     130.724 120.655 170.152  0.00  0.00     0.051 C 
ATOM     18  C   UNL d   1     132.682 122.105 169.495  0.00  0.00     0.030 C 
ATOM     19  C   UNL d   1     132.235 120.715 169.941  0.00  0.00     0.115 C 
ENDROOT
BRANCH   5  20
ATOM     20  C   UNL d   1     127.510 128.577 174.148  0.00  0.00     0.000 C 
ATOM     21  C   UNL d   1     128.497 129.729 174.375  0.00  0.00     0.000 C 
BRANCH  20  22
ATOM     22  C   UNL d   1     126.285 128.703 175.099  0.00  0.00     0.000 C 
BRANCH  22  23
ATOM     23  C   UNL d   1     124.909 128.961 174.467  0.00  0.00     0.000 C 
BRANCH  23  24
ATOM     24  C   UNL d   1     124.833 128.855 172.939  0.00  0.00     0.000 C 
BRANCH  24  25
ATOM     25  C   UNL d   1     123.818 127.832 172.398  0.00  0.00     0.000 C 
ATOM     26  C   UNL d   1     123.969 127.621 170.888  0.00  0.00     0.000 C 
ATOM     27  C   UNL d   1     123.979 126.495 173.125  0.00  0.00     0.000 C 
ENDBRANCH  24  25
ENDBRANCH  23  24
ENDBRANCH  22  23
ENDBRANCH  20  22
ENDBRANCH   5  20
BRANCH  19  28
ATOM     28  O   UNL d   1     132.598 119.760 168.946  0.00  0.00    -0.385 OA
ATOM     29  H   UNL d   1     133.431 120.062 168.540  0.00  0.00     0.210 HD
ENDBRANCH  19  28
TORSDOF 6
ENDMDL
MODEL 4
REMARK VINA RESULT:    -8.324      2.516      3.530
REMARK INTER + INTRA:         -11.662
REMARK INTER:                 -10.349
REMARK INTRA:                  -1.314
REMARK UNBOUND:                -0.662
REMARK  6 active torsions:
REMARK  status: ('A' for Active; 'I' for Inactive)
REMARK    1  A    between atoms: O_1  and  C_22 
REMARK    2  A    between atoms: C_6  and  C_13 
REMARK    3  A    between atoms: C_13  and  C_21 
REMARK    4  A    between atoms: C_21  and  C_24 
REMARK    5  A    between atoms: C_24  and  C_25 
REMARK    6  A    between atoms: C_25  and  C_26 
ROOT
ATOM      1  C   UNL d   1     128.551 129.507 158.878  0.00  0.00     0.000 C 
ATOM      2  C   UNL d   1     128.192 130.881 159.500  0.00  0.00     0.000 C 
ATOM      3  C   UNL d   1     127.089 130.769 160.555  0.00  0.00     0.005 C 
ATOM      4  C   UNL d   1     127.556 129.836 161.709  0.00  0.00     0.004 C 
ATOM      5  C   UNL d   1     129.545 129.936 157.752  0.00  0.00     0.000 C 
ATOM      6  C   UNL d   1     129.193 128.706 160.027  0.00  0.00     0.000 C 
ATOM      7  C   UNL d   1     126.396 129.604 162.759  0.00  0.00     0.015 C 
ATOM      8  C   UNL d   1     127.942 131.770 158.296  0.00  0.00     0.000 C 
ATOM      9  C   UNL d   1     128.227 128.523 161.210  0.00  0.00     0.000 C 
ATOM     10  C   UNL d   1     129.015 131.330 157.297  0.00  0.00     0.000 C 
ATOM     11  C   UNL d   1     126.688 132.142 161.112  0.00  0.00     0.025 C 
ATOM     12  C   UNL d   1     127.309 128.781 158.303  0.00  0.00     0.000 C 
ATOM     13  C   UNL d   1     125.660 130.919 163.054  0.00  0.00    -0.047 C 
ATOM     14  C   UNL d   1     127.029 129.078 164.080  0.00  0.00     0.006 C 
ATOM     15  C   UNL d   1     125.822 132.037 162.328  0.00  0.00    -0.035 C 
ATOM     16  C   UNL d   1     125.363 128.575 162.238  0.00  0.00     0.004 C 
ATOM     17  C   UNL d   1     124.722 130.916 164.246  0.00  0.00     0.051 C 
ATOM     18  C   UNL d   1     126.062 129.037 165.265  0.00  0.00     0.030 C 
ATOM     19  C   UNL d   1     125.410 130.396 165.506  0.00  0.00     0.115 C 
ENDROOT
BRANCH   5  20
ATOM     20  C   UNL d   1     129.801 128.989 156.529  0.00  0.00     0.000 C 
ATOM     21  C   UNL d   1     131.291 128.719 156.288  0.00  0.00     0.000 C 
BRANCH  20  22
ATOM     22  C   UNL d   1     129.136 129.595 155.259  0.00  0.00     0.000 C 
BRANCH  22  23
ATOM     23  C   UNL d   1     128.460 128.630 154.273  0.00  0.00     0.000 C 
BRANCH  23  24
ATOM     24  C   UNL d   1     127.029 128.201 154.617  0.00  0.00     0.000 C 
BRANCH  24  25
ATOM     25  C   UNL d   1     126.828 126.691 154.841  0.00  0.00     0.000 C 
ATOM     26  C   UNL d   1     128.158 125.963 155.052  0.00  0.00     0.000 C 
ATOM     27  C   UNL d   1     125.912 126.455 156.045  0.00  0.00     0.000 C 
ENDBRANCH  24  25
ENDBRANCH  23  24
ENDBRANCH  22  23
ENDBRANCH  20  22
ENDBRANCH   5  20
BRANCH  19  28
ATOM     28  O   UNL d   1     124.438 130.276 166.543  0.00  0.00    -0.385 OA
ATOM     29  H   UNL d   1     124.901 130.393 167.393  0.00  0.00     0.210 HD
ENDBRANCH  19  28
TORSDOF 6
ENDMDL
MODEL 5
REMARK VINA RESULT:    -8.194     37.003     38.338
REMARK INTER + INTRA:         -11.490
REMARK INTER:                 -10.623
REMARK INTRA:                  -0.867
REMARK UNBOUND:                -0.662
REMARK  6 active torsions:
REMARK  status: ('A' for Active; 'I' for Inactive)
REMARK    1  A    between atoms: O_1  and  C_22 
REMARK    2  A    between atoms: C_6  and  C_13 
REMARK    3  A    between atoms: C_13  and  C_21 
REMARK    4  A    between atoms: C_21  and  C_24 
REMARK    5  A    between atoms: C_24  and  C_25 
REMARK    6  A    between atoms: C_25  and  C_26 
ROOT
ATOM      1  C   UNL d   1     140.525 139.910 125.148  0.00  0.00     0.000 C 
ATOM      2  C   UNL d   1     141.730 139.054 125.616  0.00  0.00     0.000 C 
ATOM      3  C   UNL d   1     142.993 139.893 125.820  0.00  0.00     0.005 C 
ATOM      4  C   UNL d   1     142.736 140.978 126.904  0.00  0.00     0.004 C 
ATOM      5  C   UNL d   1     139.460 138.803 124.864  0.00  0.00     0.000 C 
ATOM      6  C   UNL d   1     140.196 140.822 126.347  0.00  0.00     0.000 C 
ATOM      7  C   UNL d   1     143.984 141.939 127.056  0.00  0.00     0.015 C 
ATOM      8  C   UNL d   1     141.780 137.919 124.611  0.00  0.00     0.000 C 
ATOM      9  C   UNL d   1     141.383 141.726 126.723  0.00  0.00     0.000 C 
ATOM     10  C   UNL d   1     140.305 137.592 124.366  0.00  0.00     0.000 C 
ATOM     11  C   UNL d   1     144.199 139.027 126.210  0.00  0.00     0.025 C 
ATOM     12  C   UNL d   1     140.850 140.735 123.878  0.00  0.00     0.000 C 
ATOM     13  C   UNL d   1     145.292 141.136 127.036  0.00  0.00    -0.047 C 
ATOM     14  C   UNL d   1     143.870 142.677 128.422  0.00  0.00     0.006 C 
ATOM     15  C   UNL d   1     145.362 139.843 126.681  0.00  0.00    -0.035 C 
ATOM     16  C   UNL d   1     144.033 142.981 125.912  0.00  0.00     0.004 C 
ATOM     17  C   UNL d   1     146.546 141.877 127.458  0.00  0.00     0.051 C 
ATOM     18  C   UNL d   1     145.125 143.457 128.818  0.00  0.00     0.030 C 
ATOM     19  C   UNL d   1     146.367 142.569 128.807  0.00  0.00     0.115 C 
ENDROOT
BRANCH   5  20
ATOM     20  C   UNL d   1     138.256 139.100 123.905  0.00  0.00     0.000 C 
ATOM     21  C   UNL d   1     136.899 139.035 124.616  0.00  0.00     0.000 C 
BRANCH  20  22
ATOM     22  C   UNL d   1     138.299 138.114 122.702  0.00  0.00     0.000 C 
BRANCH  22  23
ATOM     23  C   UNL d   1     137.127 138.142 121.710  0.00  0.00     0.000 C 
BRANCH  23  24
ATOM     24  C   UNL d   1     136.860 136.844 120.938  0.00  0.00     0.000 C 
BRANCH  24  25
ATOM     25  C   UNL d   1     135.640 136.033 121.411  0.00  0.00     0.000 C 
ATOM     26  C   UNL d   1     134.751 136.840 122.361  0.00  0.00     0.000 C 
ATOM     27  C   UNL d   1     134.820 135.565 120.206  0.00  0.00     0.000 C 
ENDBRANCH  24  25
ENDBRANCH  23  24
ENDBRANCH  22  23
ENDBRANCH  20  22
ENDBRANCH   5  20
BRANCH  19  28
ATOM     28  O   UNL d   1     147.520 143.367 129.071  0.00  0.00    -0.385 OA
ATOM     29  H   UNL d   1     148.034 142.916 129.766  0.00  0.00     0.210 HD
ENDBRANCH  19  28
TORSDOF 6
ENDMDL
MODEL 6
REMARK VINA RESULT:    -8.172     35.067     39.286
REMARK INTER + INTRA:         -11.461
REMARK INTER:                 -10.063
REMARK INTRA:                  -1.398
REMARK UNBOUND:                -0.662
REMARK  6 active torsions:
REMARK  status: ('A' for Active; 'I' for Inactive)
REMARK    1  A    between atoms: O_1  and  C_22 
REMARK    2  A    between atoms: C_6  and  C_13 
REMARK    3  A    between atoms: C_13  and  C_21 
REMARK    4  A    between atoms: C_21  and  C_24 
REMARK    5  A    between atoms: C_24  and  C_25 
REMARK    6  A    between atoms: C_25  and  C_26 
ROOT
ATOM      1  C   UNL d   1     146.026 153.192 132.262  0.00  0.00     0.000 C 
ATOM      2  C   UNL d   1     145.335 152.888 130.908  0.00  0.00     0.000 C 
ATOM      3  C   UNL d   1     144.365 151.710 131.003  0.00  0.00     0.005 C 
ATOM      4  C   UNL d   1     143.250 152.027 132.041  0.00  0.00     0.004 C 
ATOM      5  C   UNL d   1     147.052 154.290 131.838  0.00  0.00     0.000 C 
ATOM      6  C   UNL d   1     144.895 153.694 133.181  0.00  0.00     0.000 C 
ATOM      7  C   UNL d   1     142.296 150.783 132.251  0.00  0.00     0.015 C 
ATOM      8  C   UNL d   1     146.489 152.787 129.928  0.00  0.00     0.000 C 
ATOM      9  C   UNL d   1     143.793 152.637 133.366  0.00  0.00     0.000 C 
ATOM     10  C   UNL d   1     147.444 153.893 130.382  0.00  0.00     0.000 C 
ATOM     11  C   UNL d   1     143.742 151.368 129.642  0.00  0.00     0.025 C 
ATOM     12  C   UNL d   1     146.729 151.945 132.855  0.00  0.00     0.000 C 
ATOM     13  C   UNL d   1     141.959 150.124 130.906  0.00  0.00    -0.047 C 
ATOM     14  C   UNL d   1     140.975 151.283 132.907  0.00  0.00     0.006 C 
ATOM     15  C   UNL d   1     142.595 150.414 129.759  0.00  0.00    -0.035 C 
ATOM     16  C   UNL d   1     142.953 149.719 133.164  0.00  0.00     0.004 C 
ATOM     17  C   UNL d   1     140.835 149.106 130.914  0.00  0.00     0.051 C 
ATOM     18  C   UNL d   1     139.862 150.236 132.950  0.00  0.00     0.030 C 
ATOM     19  C   UNL d   1     139.571 149.666 131.564  0.00  0.00     0.115 C 
ENDROOT
BRANCH   5  20
ATOM     20  C   UNL d   1     148.318 154.564 132.721  0.00  0.00     0.000 C 
ATOM     21  C   UNL d   1     148.472 156.042 133.100  0.00  0.00     0.000 C 
BRANCH  20  22
ATOM     22  C   UNL d   1     149.586 154.048 131.981  0.00  0.00     0.000 C 
BRANCH  22  23
ATOM     23  C   UNL d   1     150.198 152.719 132.448  0.00  0.00     0.000 C 
BRANCH  23  24
ATOM     24  C   UNL d   1     150.293 151.608 131.394  0.00  0.00     0.000 C 
BRANCH  24  25
ATOM     25  C   UNL d   1     150.902 152.028 130.044  0.00  0.00     0.000 C 
ATOM     26  C   UNL d   1     152.359 151.573 129.910  0.00  0.00     0.000 C 
ATOM     27  C   UNL d   1     150.073 151.455 128.892  0.00  0.00     0.000 C 
ENDBRANCH  24  25
ENDBRANCH  23  24
ENDBRANCH  22  23
ENDBRANCH  20  22
ENDBRANCH   5  20
BRANCH  19  28
ATOM     28  O   UNL d   1     138.610 148.618 131.676  0.00  0.00    -0.385 OA
ATOM     29  H   UNL d   1     137.739 148.994 131.452  0.00  0.00     0.210 HD
ENDBRANCH  19  28
TORSDOF 6
ENDMDL
MODEL 7
REMARK VINA RESULT:    -8.078      4.208      8.959
REMARK INTER + INTRA:         -11.337
REMARK INTER:                 -10.082
REMARK INTRA:                  -1.255
REMARK UNBOUND:                -0.662
REMARK  6 active torsions:
REMARK  status: ('A' for Active; 'I' for Inactive)
REMARK    1  A    between atoms: O_1  and  C_22 
REMARK    2  A    between atoms: C_6  and  C_13 
REMARK    3  A    between atoms: C_13  and  C_21 
REMARK    4  A    between atoms: C_21  and  C_24 
REMARK    5  A    between atoms: C_24  and  C_25 
REMARK    6  A    between atoms: C_25  and  C_26 
ROOT
ATOM      1  C   UNL d   1     127.934 128.595 159.888  0.00  0.00     0.000 C 
ATOM      2  C   UNL d   1     128.278 129.706 158.863  0.00  0.00     0.000 C 
ATOM      3  C   UNL d   1     129.504 129.356 158.018  0.00  0.00     0.005 C 
ATOM      4  C   UNL d   1     129.239 128.046 157.222  0.00  0.00     0.004 C 
ATOM      5  C   UNL d   1     126.787 129.278 160.700  0.00  0.00     0.000 C 
ATOM      6  C   UNL d   1     127.486 127.393 159.035  0.00  0.00     0.000 C 
ATOM      7  C   UNL d   1     130.528 127.590 156.427  0.00  0.00     0.015 C 
ATOM      8  C   UNL d   1     128.325 130.970 159.701  0.00  0.00     0.000 C 
ATOM      9  C   UNL d   1     128.597 126.918 158.082  0.00  0.00     0.000 C 
ATOM     10  C   UNL d   1     127.170 130.789 160.690  0.00  0.00     0.000 C 
ATOM     11  C   UNL d   1     129.882 130.493 157.058  0.00  0.00     0.025 C 
ATOM     12  C   UNL d   1     129.142 128.235 160.790  0.00  0.00     0.000 C 
ATOM     13  C   UNL d   1     131.209 128.795 155.762  0.00  0.00    -0.047 C 
ATOM     14  C   UNL d   1     130.093 126.587 155.320  0.00  0.00     0.006 C 
ATOM     15  C   UNL d   1     130.892 130.070 156.038  0.00  0.00    -0.035 C 
ATOM     16  C   UNL d   1     131.554 126.907 157.365  0.00  0.00     0.004 C 
ATOM     17  C   UNL d   1     132.282 128.484 154.736  0.00  0.00     0.051 C 
ATOM     18  C   UNL d   1     131.195 126.246 154.315  0.00  0.00     0.030 C 
ATOM     19  C   UNL d   1     131.784 127.501 153.678  0.00  0.00     0.115 C 
ENDROOT
BRANCH   5  20
ATOM     20  C   UNL d   1     126.447 128.780 162.147  0.00  0.00     0.000 C 
ATOM     21  C   UNL d   1     124.962 128.442 162.326  0.00  0.00     0.000 C 
BRANCH  20  22
ATOM     22  C   UNL d   1     126.899 129.850 163.182  0.00  0.00     0.000 C 
BRANCH  22  23
ATOM     23  C   UNL d   1     125.833 130.439 164.118  0.00  0.00     0.000 C 
BRANCH  23  24
ATOM     24  C   UNL d   1     125.780 131.969 164.210  0.00  0.00     0.000 C 
BRANCH  24  25
ATOM     25  C   UNL d   1     124.531 132.624 163.594  0.00  0.00     0.000 C 
ATOM     26  C   UNL d   1     124.829 133.249 162.228  0.00  0.00     0.000 C 
ATOM     27  C   UNL d   1     123.409 131.593 163.457  0.00  0.00     0.000 C 
ENDBRANCH  24  25
ENDBRANCH  23  24
ENDBRANCH  22  23
ENDBRANCH  20  22
ENDBRANCH   5  20
BRANCH  19  28
ATOM     28  O   UNL d   1     132.879 127.136 152.840  0.00  0.00    -0.385 OA
ATOM     29  H   UNL d   1     133.690 127.491 153.247  0.00  0.00     0.210 HD
ENDBRANCH  19  28
TORSDOF 6
ENDMDL
MODEL 8
REMARK VINA RESULT:    -7.942     32.074     35.841
REMARK INTER + INTRA:         -11.158
REMARK INTER:                  -9.796
REMARK INTRA:                  -1.362
REMARK UNBOUND:                -0.662
REMARK  6 active torsions:
REMARK  status: ('A' for Active; 'I' for Inactive)
REMARK    1  A    between atoms: O_1  and  C_22 
REMARK    2  A    between atoms: C_6  and  C_13 
REMARK    3  A    between atoms: C_13  and  C_21 
REMARK    4  A    between atoms: C_21  and  C_24 
REMARK    5  A    between atoms: C_24  and  C_25 
REMARK    6  A    between atoms: C_25  and  C_26 
ROOT
ATOM      1  C   UNL d   1     155.596 137.949 137.026  0.00  0.00     0.000 C 
ATOM      2  C   UNL d   1     154.211 137.711 137.681  0.00  0.00     0.000 C 
ATOM      3  C   UNL d   1     154.214 138.032 139.176  0.00  0.00     0.005 C 
ATOM      4  C   UNL d   1     154.588 139.526 139.394  0.00  0.00     0.004 C 
ATOM      5  C   UNL d   1     155.349 137.394 135.587  0.00  0.00     0.000 C 
ATOM      6  C   UNL d   1     155.811 139.474 137.095  0.00  0.00     0.000 C 
ATOM      7  C   UNL d   1     154.716 139.863 140.935  0.00  0.00     0.015 C 
ATOM      8  C   UNL d   1     153.845 136.302 137.252  0.00  0.00     0.000 C 
ATOM      9  C   UNL d   1     155.807 139.989 138.544  0.00  0.00     0.000 C 
ATOM     10  C   UNL d   1     154.338 136.228 135.805  0.00  0.00     0.000 C 
ATOM     11  C   UNL d   1     152.860 137.723 139.832  0.00  0.00     0.025 C 
ATOM     12  C   UNL d   1     156.728 137.181 137.752  0.00  0.00     0.000 C 
ATOM     13  C   UNL d   1     153.576 139.210 141.729  0.00  0.00    -0.047 C 
ATOM     14  C   UNL d   1     154.624 141.408 141.107  0.00  0.00     0.006 C 
ATOM     15  C   UNL d   1     152.752 138.282 141.215  0.00  0.00    -0.035 C 
ATOM     16  C   UNL d   1     156.062 139.360 141.510  0.00  0.00     0.004 C 
ATOM     17  C   UNL d   1     153.397 139.674 143.162  0.00  0.00     0.051 C 
ATOM     18  C   UNL d   1     154.489 141.868 142.560  0.00  0.00     0.030 C 
ATOM     19  C   UNL d   1     153.309 141.196 143.256  0.00  0.00     0.115 C 
ENDROOT
BRANCH   5  20
ATOM     20  C   UNL d   1     156.562 136.947 134.700  0.00  0.00     0.000 C 
ATOM     21  C   UNL d   1     157.356 138.131 134.137  0.00  0.00     0.000 C 
BRANCH  20  22
ATOM     22  C   UNL d   1     156.051 136.027 133.553  0.00  0.00     0.000 C 
BRANCH  22  23
ATOM     23  C   UNL d   1     156.839 134.742 133.259  0.00  0.00     0.000 C 
BRANCH  23  24
ATOM     24  C   UNL d   1     156.585 133.559 134.202  0.00  0.00     0.000 C 
BRANCH  24  25
ATOM     25  C   UNL d   1     157.755 133.195 135.134  0.00  0.00     0.000 C 
ATOM     26  C   UNL d   1     159.109 133.576 134.528  0.00  0.00     0.000 C 
ATOM     27  C   UNL d   1     157.582 133.886 136.489  0.00  0.00     0.000 C 
ENDBRANCH  24  25
ENDBRANCH  23  24
ENDBRANCH  22  23
ENDBRANCH  20  22
ENDBRANCH   5  20
BRANCH  19  28
ATOM     28  O   UNL d   1     153.295 141.571 144.632  0.00  0.00    -0.385 OA
ATOM     29  H   UNL d   1     154.081 142.125 144.792  0.00  0.00     0.210 HD
ENDBRANCH  19  28
TORSDOF 6
ENDMDL
MODEL 9
REMARK VINA RESULT:    -7.761     55.967     61.024
REMARK INTER + INTRA:         -10.918
REMARK INTER:                  -9.503
REMARK INTRA:                  -1.414
REMARK UNBOUND:                -0.662
REMARK  6 active torsions:
REMARK  status: ('A' for Active; 'I' for Inactive)
REMARK    1  A    between atoms: O_1  and  C_22 
REMARK    2  A    between atoms: C_6  and  C_13 
REMARK    3  A    between atoms: C_13  and  C_21 
REMARK    4  A    between atoms: C_21  and  C_24 
REMARK    5  A    between atoms: C_24  and  C_25 
REMARK    6  A    between atoms: C_25  and  C_26 
ROOT
ATOM      1  C   UNL d   1     163.849 104.521 117.103  0.00  0.00     0.000 C 
ATOM      2  C   UNL d   1     162.722 103.834 117.915  0.00  0.00     0.000 C 
ATOM      3  C   UNL d   1     162.350 104.622 119.173  0.00  0.00     0.005 C 
ATOM      4  C   UNL d   1     161.850 106.041 118.777  0.00  0.00     0.004 C 
ATOM      5  C   UNL d   1     164.131 103.443 116.007  0.00  0.00     0.000 C 
ATOM      6  C   UNL d   1     163.219 105.823 116.572  0.00  0.00     0.000 C 
ATOM      7  C   UNL d   1     161.569 106.924 120.059  0.00  0.00     0.015 C 
ATOM      8  C   UNL d   1     163.213 102.408 118.084  0.00  0.00     0.000 C 
ATOM      9  C   UNL d   1     162.747 106.739 117.714  0.00  0.00     0.000 C 
ATOM     10  C   UNL d   1     163.864 102.091 116.735  0.00  0.00     0.000 C 
ATOM     11  C   UNL d   1     161.286 103.898 120.010  0.00  0.00     0.025 C 
ATOM     12  C   UNL d   1     165.104 104.805 117.966  0.00  0.00     0.000 C 
ATOM     13  C   UNL d   1     160.846 106.103 121.136  0.00  0.00    -0.047 C 
ATOM     14  C   UNL d   1     160.657 108.116 119.643  0.00  0.00     0.006 C 
ATOM     15  C   UNL d   1     160.711 104.768 121.084  0.00  0.00    -0.035 C 
ATOM     16  C   UNL d   1     162.885 107.470 120.665  0.00  0.00     0.004 C 
ATOM     17  C   UNL d   1     160.256 106.880 122.297  0.00  0.00     0.051 C 
ATOM     18  C   UNL d   1     160.103 108.921 120.820  0.00  0.00     0.030 C 
ATOM     19  C   UNL d   1     159.369 108.027 121.817  0.00  0.00     0.115 C 
ENDROOT
BRANCH   5  20
ATOM     20  C   UNL d   1     165.506 103.431 115.255  0.00  0.00     0.000 C 
ATOM     21  C   UNL d   1     165.456 104.170 113.912  0.00  0.00     0.000 C 
BRANCH  20  22
ATOM     22  C   UNL d   1     165.975 101.960 115.060  0.00  0.00     0.000 C 
BRANCH  22  23
ATOM     23  C   UNL d   1     165.808 101.332 113.668  0.00  0.00     0.000 C 
BRANCH  23  24
ATOM     24  C   UNL d   1     165.090  99.978 113.615  0.00  0.00     0.000 C 
BRANCH  24  25
ATOM     25  C   UNL d   1     163.644 100.017 113.089  0.00  0.00     0.000 C 
ATOM     26  C   UNL d   1     162.628  99.672 114.182  0.00  0.00     0.000 C 
ATOM     27  C   UNL d   1     163.332 101.400 112.511  0.00  0.00     0.000 C 
ENDBRANCH  24  25
ENDBRANCH  23  24
ENDBRANCH  22  23
ENDBRANCH  20  22
ENDBRANCH   5  20
BRANCH  19  28
ATOM     28  O   UNL d   1     158.972 108.804 122.945  0.00  0.00    -0.385 OA
ATOM     29  H   UNL d   1     158.747 109.696 122.621  0.00  0.00     0.210 HD
ENDBRANCH  19  28
TORSDOF 6
ENDMDL
MODEL 10
REMARK VINA RESULT:    -7.744     14.594     16.836
REMARK INTER + INTRA:         -10.896
REMARK INTER:                  -9.308
REMARK INTRA:                  -1.589
REMARK UNBOUND:                -0.662
REMARK  6 active torsions:
REMARK  status: ('A' for Active; 'I' for Inactive)
REMARK    1  A    between atoms: O_1  and  C_22 
REMARK    2  A    between atoms: C_6  and  C_13 
REMARK    3  A    between atoms: C_13  and  C_21 
REMARK    4  A    between atoms: C_21  and  C_24 
REMARK    5  A    between atoms: C_24  and  C_25 
REMARK    6  A    between atoms: C_25  and  C_26 
ROOT
ATOM      1  C   UNL d   1     129.088 123.361 171.881  0.00  0.00     0.000 C 
ATOM      2  C   UNL d   1     128.683 122.060 172.621  0.00  0.00     0.000 C 
ATOM      3  C   UNL d   1     128.570 120.865 171.673  0.00  0.00     0.005 C 
ATOM      4  C   UNL d   1     129.940 120.608 170.981  0.00  0.00     0.004 C 
ATOM      5  C   UNL d   1     128.961 124.412 173.030  0.00  0.00     0.000 C 
ATOM      6  C   UNL d   1     130.530 123.111 171.399  0.00  0.00     0.000 C 
ATOM      7  C   UNL d   1     129.829 119.453 169.906  0.00  0.00     0.015 C 
ATOM      8  C   UNL d   1     127.454 122.461 173.415  0.00  0.00     0.000 C 
ATOM      9  C   UNL d   1     130.616 121.904 170.448  0.00  0.00     0.000 C 
ATOM     10  C   UNL d   1     127.787 123.873 173.902  0.00  0.00     0.000 C 
ATOM     11  C   UNL d   1     128.096 119.598 172.399  0.00  0.00     0.025 C 
ATOM     12  C   UNL d   1     128.139 123.683 170.699  0.00  0.00     0.000 C 
ATOM     13  C   UNL d   1     128.985 118.290 170.445  0.00  0.00    -0.047 C 
ATOM     14  C   UNL d   1     131.263 118.931 169.598  0.00  0.00     0.006 C 
ATOM     15  C   UNL d   1     128.244 118.366 171.562  0.00  0.00    -0.035 C 
ATOM     16  C   UNL d   1     129.175 119.965 168.598  0.00  0.00     0.004 C 
ATOM     17  C   UNL d   1     129.028 116.998 169.650  0.00  0.00     0.051 C 
ATOM     18  C   UNL d   1     131.296 117.653 168.758  0.00  0.00     0.030 C 
ATOM     19  C   UNL d   1     130.462 116.542 169.391  0.00  0.00     0.115 C 
ENDROOT
BRANCH   5  20
ATOM     20  C   UNL d   1     128.774 125.930 172.686  0.00  0.00     0.000 C 
ATOM     21  C   UNL d   1     129.878 126.815 173.278  0.00  0.00     0.000 C 
BRANCH  20  22
ATOM     22  C   UNL d   1     127.371 126.400 173.167  0.00  0.00     0.000 C 
BRANCH  22  23
ATOM     23  C   UNL d   1     126.336 126.783 172.099  0.00  0.00     0.000 C 
BRANCH  23  24
ATOM     24  C   UNL d   1     124.898 126.312 172.346  0.00  0.00     0.000 C 
BRANCH  24  25
ATOM     25  C   UNL d   1     124.670 124.794 172.226  0.00  0.00     0.000 C 
ATOM     26  C   UNL d   1     123.449 124.335 173.028  0.00  0.00     0.000 C 
ATOM     27  C   UNL d   1     124.501 124.402 170.756  0.00  0.00     0.000 C 
ENDBRANCH  24  25
ENDBRANCH  23  24
ENDBRANCH  22  23
ENDBRANCH  20  22
ENDBRANCH   5  20
BRANCH  19  28
ATOM     28  O   UNL d   1     130.435 115.416 168.516  0.00  0.00    -0.385 OA
ATOM     29  H   UNL d   1     130.203 114.635 169.052  0.00  0.00     0.210 HD
ENDBRANCH  19  28
TORSDOF 6
ENDMDL
MODEL 11
REMARK VINA RESULT:    -7.640     36.460     40.696
REMARK INTER + INTRA:         -10.759
REMARK INTER:                  -9.392
REMARK INTRA:                  -1.367
REMARK UNBOUND:                -0.662
REMARK  6 active torsions:
REMARK  status: ('A' for Active; 'I' for Inactive)
REMARK    1  A    between atoms: O_1  and  C_22 
REMARK    2  A    between atoms: C_6  and  C_13 
REMARK    3  A    between atoms: C_13  and  C_21 
REMARK    4  A    between atoms: C_21  and  C_24 
REMARK    5  A    between atoms: C_24  and  C_25 
REMARK    6  A    between atoms: C_25  and  C_26 
ROOT
ATOM      1  C   UNL d   1     133.924 112.399 126.212  0.00  0.00     0.000 C 
ATOM      2  C   UNL d   1     134.383 111.666 124.926  0.00  0.00     0.000 C 
ATOM      3  C   UNL d   1     133.209 111.299 124.017  0.00  0.00     0.005 C 
ATOM      4  C   UNL d   1     132.456 112.589 123.581  0.00  0.00     0.004 C 
ATOM      5  C   UNL d   1     135.268 112.492 127.003  0.00  0.00     0.000 C 
ATOM      6  C   UNL d   1     133.375 113.754 125.722  0.00  0.00     0.000 C 
ATOM      7  C   UNL d   1     131.166 112.239 122.735  0.00  0.00     0.015 C 
ATOM      8  C   UNL d   1     135.264 110.544 125.444  0.00  0.00     0.000 C 
ATOM      9  C   UNL d   1     132.193 113.578 124.754  0.00  0.00     0.000 C 
ATOM     10  C   UNL d   1     136.029 111.193 126.600  0.00  0.00     0.000 C 
ATOM     11  C   UNL d   1     133.664 110.507 122.783  0.00  0.00     0.025 C 
ATOM     12  C   UNL d   1     132.851 111.599 126.993  0.00  0.00     0.000 C 
ATOM     13  C   UNL d   1     131.465 111.119 121.728  0.00  0.00    -0.047 C 
ATOM     14  C   UNL d   1     130.732 113.513 121.953  0.00  0.00     0.006 C 
ATOM     15  C   UNL d   1     132.587 110.381 121.752  0.00  0.00    -0.035 C 
ATOM     16  C   UNL d   1     130.005 111.775 123.649  0.00  0.00     0.004 C 
ATOM     17  C   UNL d   1     130.418 110.876 120.658  0.00  0.00     0.051 C 
ATOM     18  C   UNL d   1     129.644 113.265 120.907  0.00  0.00     0.030 C 
ATOM     19  C   UNL d   1     130.046 112.165 119.928  0.00  0.00     0.115 C 
ENDROOT
BRANCH   5  20
ATOM     20  C   UNL d   1     135.251 112.691 128.558  0.00  0.00     0.000 C 
ATOM     21  C   UNL d   1     134.584 114.005 128.982  0.00  0.00     0.000 C 
BRANCH  20  22
ATOM     22  C   UNL d   1     136.705 112.607 129.105  0.00  0.00     0.000 C 
BRANCH  22  23
ATOM     23  C   UNL d   1     137.028 111.495 130.115  0.00  0.00     0.000 C 
BRANCH  23  24
ATOM     24  C   UNL d   1     135.860 110.590 130.526  0.00  0.00     0.000 C 
BRANCH  24  25
ATOM     25  C   UNL d   1     135.794 109.231 129.808  0.00  0.00     0.000 C 
ATOM     26  C   UNL d   1     136.147 108.072 130.745  0.00  0.00     0.000 C 
ATOM     27  C   UNL d   1     134.397 109.013 129.220  0.00  0.00     0.000 C 
ENDBRANCH  24  25
ENDBRANCH  23  24
ENDBRANCH  22  23
ENDBRANCH  20  22
ENDBRANCH   5  20
BRANCH  19  28
ATOM     28  O   UNL d   1     128.957 111.895 119.047  0.00  0.00    -0.385 OA
ATOM     29  H   UNL d   1     128.219 112.477 119.307  0.00  0.00     0.210 HD
ENDBRANCH  19  28
TORSDOF 6
ENDMDL
MODEL 12
REMARK VINA RESULT:    -7.453     36.763     41.309
REMARK INTER + INTRA:         -10.511
REMARK INTER:                  -9.251
REMARK INTRA:                  -1.261
REMARK UNBOUND:                -0.662
REMARK  6 active torsions:
REMARK  status: ('A' for Active; 'I' for Inactive)
REMARK    1  A    between atoms: O_1  and  C_22 
REMARK    2  A    between atoms: C_6  and  C_13 
REMARK    3  A    between atoms: C_13  and  C_21 
REMARK    4  A    between atoms: C_21  and  C_24 
REMARK    5  A    between atoms: C_24  and  C_25 
REMARK    6  A    between atoms: C_25  and  C_26 
ROOT
ATOM      1  C   UNL d   1     132.251 111.029 123.124  0.00  0.00     0.000 C 
ATOM      2  C   UNL d   1     132.665 112.457 123.561  0.00  0.00     0.000 C 
ATOM      3  C   UNL d   1     133.081 112.517 125.031  0.00  0.00     0.005 C 
ATOM      4  C   UNL d   1     134.298 111.578 125.273  0.00  0.00     0.004 C 
ATOM      5  C   UNL d   1     131.728 111.295 121.677  0.00  0.00     0.000 C 
ATOM      6  C   UNL d   1     133.548 110.200 123.194  0.00  0.00     0.000 C 
ATOM      7  C   UNL d   1     134.681 111.525 126.807  0.00  0.00     0.015 C 
ATOM      8  C   UNL d   1     131.504 113.325 123.110  0.00  0.00     0.000 C 
ATOM      9  C   UNL d   1     134.140 110.177 124.614  0.00  0.00     0.000 C 
ATOM     10  C   UNL d   1     131.110 112.723 121.759  0.00  0.00     0.000 C 
ATOM     11  C   UNL d   1     133.418 113.948 125.474  0.00  0.00     0.025 C 
ATOM     12  C   UNL d   1     131.146 110.435 124.034  0.00  0.00     0.000 C 
ATOM     13  C   UNL d   1     134.629 112.929 127.428  0.00  0.00    -0.047 C 
ATOM     14  C   UNL d   1     136.132 110.977 126.931  0.00  0.00     0.006 C 
ATOM     15  C   UNL d   1     134.088 113.992 126.812  0.00  0.00    -0.035 C 
ATOM     16  C   UNL d   1     133.715 110.608 127.596  0.00  0.00     0.004 C 
ATOM     17  C   UNL d   1     135.246 113.082 128.806  0.00  0.00     0.051 C 
ATOM     18  C   UNL d   1     136.729 111.095 128.335  0.00  0.00     0.030 C 
ATOM     19  C   UNL d   1     136.669 112.530 128.853  0.00  0.00     0.115 C 
ENDROOT
BRANCH   5  20
ATOM     20  C   UNL d   1     130.744 110.279 120.999  0.00  0.00     0.000 C 
ATOM     21  C   UNL d   1     131.405 108.933 120.680  0.00  0.00     0.000 C 
BRANCH  20  22
ATOM     22  C   UNL d   1     130.145 110.920 119.713  0.00  0.00     0.000 C 
BRANCH  22  23
ATOM     23  C   UNL d   1     131.005 110.913 118.440  0.00  0.00     0.000 C 
BRANCH  23  24
ATOM     24  C   UNL d   1     131.664 112.244 118.058  0.00  0.00     0.000 C 
BRANCH  24  25
ATOM     25  C   UNL d   1     133.190 112.194 117.866  0.00  0.00     0.000 C 
ATOM     26  C   UNL d   1     133.837 111.091 118.709  0.00  0.00     0.000 C 
ATOM     27  C   UNL d   1     133.528 111.980 116.388  0.00  0.00     0.000 C 
ENDBRANCH  24  25
ENDBRANCH  23  24
ENDBRANCH  22  23
ENDBRANCH  20  22
ENDBRANCH   5  20
BRANCH  19  28
ATOM     28  O   UNL d   1     137.131 112.565 130.202  0.00  0.00    -0.385 OA
ATOM     29  H   UNL d   1     136.888 111.717 130.616  0.00  0.00     0.210 HD
ENDBRANCH  19  28
TORSDOF 6
ENDMDL
MODEL 13
REMARK VINA RESULT:    -7.380     40.068     44.231
REMARK INTER + INTRA:         -10.415
REMARK INTER:                  -9.773
REMARK INTRA:                  -0.642
REMARK UNBOUND:                -0.662
REMARK  6 active torsions:
REMARK  status: ('A' for Active; 'I' for Inactive)
REMARK    1  A    between atoms: O_1  and  C_22 
REMARK    2  A    between atoms: C_6  and  C_13 
REMARK    3  A    between atoms: C_13  and  C_21 
REMARK    4  A    between atoms: C_21  and  C_24 
REMARK    5  A    between atoms: C_24  and  C_25 
REMARK    6  A    between atoms: C_25  and  C_26 
ROOT
ATOM      1  C   UNL d   1     149.662 152.129 128.401  0.00  0.00     0.000 C 
ATOM      2  C   UNL d   1     149.494 153.128 127.228  0.00  0.00     0.000 C 
ATOM      3  C   UNL d   1     149.155 152.426 125.912  0.00  0.00     0.005 C 
ATOM      4  C   UNL d   1     147.818 151.645 126.061  0.00  0.00     0.004 C 
ATOM      5  C   UNL d   1     150.158 153.078 129.538  0.00  0.00     0.000 C 
ATOM      6  C   UNL d   1     148.255 151.541 128.627  0.00  0.00     0.000 C 
ATOM      7  C   UNL d   1     147.496 150.811 124.755  0.00  0.00     0.015 C 
ATOM      8  C   UNL d   1     150.756 153.969 127.286  0.00  0.00     0.000 C 
ATOM      9  C   UNL d   1     147.727 150.817 127.376  0.00  0.00     0.000 C 
ATOM     10  C   UNL d   1     150.994 154.157 128.786  0.00  0.00     0.000 C 
ATOM     11  C   UNL d   1     149.065 153.415 124.742  0.00  0.00     0.025 C 
ATOM     12  C   UNL d   1     150.697 151.021 128.085  0.00  0.00     0.000 C 
ATOM     13  C   UNL d   1     147.793 151.639 123.497  0.00  0.00    -0.047 C 
ATOM     14  C   UNL d   1     145.984 150.445 124.768  0.00  0.00     0.006 C 
ATOM     15  C   UNL d   1     148.467 152.800 123.515  0.00  0.00    -0.035 C 
ATOM     16  C   UNL d   1     148.340 149.514 124.695  0.00  0.00     0.004 C 
ATOM     17  C   UNL d   1     147.267 151.087 122.186  0.00  0.00     0.051 C 
ATOM     18  C   UNL d   1     145.473 149.848 123.456  0.00  0.00     0.030 C 
ATOM     19  C   UNL d   1     145.778 150.756 122.268  0.00  0.00     0.115 C 
ENDROOT
BRANCH   5  20
ATOM     20  C   UNL d   1     150.942 152.492 130.763  0.00  0.00     0.000 C 
ATOM     21  C   UNL d   1     152.234 151.775 130.355  0.00  0.00     0.000 C 
BRANCH  20  22
ATOM     22  C   UNL d   1     150.009 151.537 131.564  0.00  0.00     0.000 C 
BRANCH  22  23
ATOM     23  C   UNL d   1     149.358 152.078 132.846  0.00  0.00     0.000 C 
BRANCH  23  24
ATOM     24  C   UNL d   1     147.833 152.238 132.818  0.00  0.00     0.000 C 
BRANCH  24  25
ATOM     25  C   UNL d   1     147.323 153.651 132.483  0.00  0.00     0.000 C 
ATOM     26  C   UNL d   1     148.413 154.711 132.668  0.00  0.00     0.000 C 
ATOM     27  C   UNL d   1     146.799 153.694 131.046  0.00  0.00     0.000 C 
ENDBRANCH  24  25
ENDBRANCH  23  24
ENDBRANCH  22  23
ENDBRANCH  20  22
ENDBRANCH   5  20
BRANCH  19  28
ATOM     28  O   UNL d   1     145.385 150.105 121.062  0.00  0.00    -0.385 OA
ATOM     29  H   UNL d   1     146.058 150.308 120.387  0.00  0.00     0.210 HD
ENDBRANCH  19  28
TORSDOF 6
ENDMDL
MODEL 14
REMARK VINA RESULT:    -7.325     36.106     40.012
REMARK INTER + INTRA:         -10.343
REMARK INTER:                  -8.673
REMARK INTRA:                  -1.669
REMARK UNBOUND:                -0.662
REMARK  6 active torsions:
REMARK  status: ('A' for Active; 'I' for Inactive)
REMARK    1  A    between atoms: O_1  and  C_22 
REMARK    2  A    between atoms: C_6  and  C_13 
REMARK    3  A    between atoms: C_13  and  C_21 
REMARK    4  A    between atoms: C_21  and  C_24 
REMARK    5  A    between atoms: C_24  and  C_25 
REMARK    6  A    between atoms: C_25  and  C_26 
ROOT
ATOM      1  C   UNL d   1     132.961 111.654 127.340  0.00  0.00     0.000 C 
ATOM      2  C   UNL d   1     132.844 112.845 126.354  0.00  0.00     0.000 C 
ATOM      3  C   UNL d   1     132.267 112.423 125.002  0.00  0.00     0.005 C 
ATOM      4  C   UNL d   1     130.842 111.831 125.197  0.00  0.00     0.004 C 
ATOM      5  C   UNL d   1     133.714 112.323 128.534  0.00  0.00     0.000 C 
ATOM      6  C   UNL d   1     131.506 111.249 127.648  0.00  0.00     0.000 C 
ATOM      7  C   UNL d   1     130.263 111.277 123.833  0.00  0.00     0.015 C 
ATOM      8  C   UNL d   1     134.225 113.472 126.379  0.00  0.00     0.000 C 
ATOM      9  C   UNL d   1     130.748 110.822 126.379  0.00  0.00     0.000 C 
ATOM     10  C   UNL d   1     134.637 113.377 127.850  0.00  0.00     0.000 C 
ATOM     11  C   UNL d   1     132.225 113.592 124.007  0.00  0.00     0.025 C 
ATOM     12  C   UNL d   1     133.766 110.474 126.741  0.00  0.00     0.000 C 
ATOM     13  C   UNL d   1     130.565 112.246 122.682  0.00  0.00    -0.047 C 
ATOM     14  C   UNL d   1     128.719 111.137 123.977  0.00  0.00     0.006 C 
ATOM     15  C   UNL d   1     131.418 113.278 122.786  0.00  0.00    -0.035 C 
ATOM     16  C   UNL d   1     130.874 109.898 123.482  0.00  0.00     0.004 C 
ATOM     17  C   UNL d   1     129.830 111.998 121.378  0.00  0.00     0.051 C 
ATOM     18  C   UNL d   1     127.992 110.842 122.664  0.00  0.00     0.030 C 
ATOM     19  C   UNL d   1     128.323 111.878 121.593  0.00  0.00     0.115 C 
ENDROOT
BRANCH   5  20
ATOM     20  C   UNL d   1     134.508 111.438 129.555  0.00  0.00     0.000 C 
ATOM     21  C   UNL d   1     133.811 111.330 130.917  0.00  0.00     0.000 C 
BRANCH  20  22
ATOM     22  C   UNL d   1     135.950 112.001 129.714  0.00  0.00     0.000 C 
BRANCH  22  23
ATOM     23  C   UNL d   1     137.126 111.047 129.454  0.00  0.00     0.000 C 
BRANCH  23  24
ATOM     24  C   UNL d   1     136.845 109.862 128.522  0.00  0.00     0.000 C 
BRANCH  24  25
ATOM     25  C   UNL d   1     137.615 109.874 127.188  0.00  0.00     0.000 C 
ATOM     26  C   UNL d   1     137.190 108.722 126.273  0.00  0.00     0.000 C 
ATOM     27  C   UNL d   1     137.403 111.209 126.471  0.00  0.00     0.000 C 
ENDBRANCH  24  25
ENDBRANCH  23  24
ENDBRANCH  22  23
ENDBRANCH  20  22
ENDBRANCH   5  20
BRANCH  19  28
ATOM     28  O   UNL d   1     127.713 111.496 120.362  0.00  0.00    -0.385 OA
ATOM     29  H   UNL d   1     128.188 111.955 119.645  0.00  0.00     0.210 HD
ENDBRANCH  19  28
TORSDOF 6
ENDMDL
MODEL 15
REMARK VINA RESULT:    -7.304     38.610     42.558
REMARK INTER + INTRA:         -10.314
REMARK INTER:                  -9.147
REMARK INTRA:                  -1.167
REMARK UNBOUND:                -0.662
REMARK  6 active torsions:
REMARK  status: ('A' for Active; 'I' for Inactive)
REMARK    1  A    between atoms: O_1  and  C_22 
REMARK    2  A    between atoms: C_6  and  C_13 
REMARK    3  A    between atoms: C_13  and  C_21 
REMARK    4  A    between atoms: C_21  and  C_24 
REMARK    5  A    between atoms: C_24  and  C_25 
REMARK    6  A    between atoms: C_25  and  C_26 
ROOT
ATOM      1  C   UNL d   1     146.754 155.702 132.876  0.00  0.00     0.000 C 
ATOM      2  C   UNL d   1     148.143 156.065 133.462  0.00  0.00     0.000 C 
ATOM      3  C   UNL d   1     148.479 157.547 133.283  0.00  0.00     0.005 C 
ATOM      4  C   UNL d   1     147.416 158.420 134.011  0.00  0.00     0.004 C 
ATOM      5  C   UNL d   1     146.753 154.149 133.041  0.00  0.00     0.000 C 
ATOM      6  C   UNL d   1     145.740 156.441 133.772  0.00  0.00     0.000 C 
ATOM      7  C   UNL d   1     147.667 159.960 133.748  0.00  0.00     0.015 C 
ATOM      8  C   UNL d   1     149.076 155.040 132.844  0.00  0.00     0.000 C 
ATOM      9  C   UNL d   1     145.952 157.964 133.744  0.00  0.00     0.000 C 
ATOM     10  C   UNL d   1     148.249 153.752 132.850  0.00  0.00     0.000 C 
ATOM     11  C   UNL d   1     149.885 157.882 133.798  0.00  0.00     0.025 C 
ATOM     12  C   UNL d   1     146.615 156.123 131.392  0.00  0.00     0.000 C 
ATOM     13  C   UNL d   1     149.163 160.290 133.844  0.00  0.00    -0.047 C 
ATOM     14  C   UNL d   1     146.904 160.773 134.834  0.00  0.00     0.006 C 
ATOM     15  C   UNL d   1     150.127 159.356 133.889  0.00  0.00    -0.035 C 
ATOM     16  C   UNL d   1     147.165 160.378 132.344  0.00  0.00     0.004 C 
ATOM     17  C   UNL d   1     149.528 161.761 133.903  0.00  0.00     0.051 C 
ATOM     18  C   UNL d   1     147.246 162.264 134.856  0.00  0.00     0.030 C 
ATOM     19  C   UNL d   1     148.748 162.494 134.993  0.00  0.00     0.115 C 
ENDROOT
BRANCH   5  20
ATOM     20  C   UNL d   1     145.806 153.267 132.156  0.00  0.00     0.000 C 
ATOM     21  C   UNL d   1     144.787 152.473 132.984  0.00  0.00     0.000 C 
BRANCH  20  22
ATOM     22  C   UNL d   1     146.663 152.315 131.273  0.00  0.00     0.000 C 
BRANCH  22  23
ATOM     23  C   UNL d   1     146.953 152.745 129.827  0.00  0.00     0.000 C 
BRANCH  23  24
ATOM     24  C   UNL d   1     148.430 152.943 129.461  0.00  0.00     0.000 C 
BRANCH  24  25
ATOM     25  C   UNL d   1     149.300 151.675 129.515  0.00  0.00     0.000 C 
ATOM     26  C   UNL d   1     150.043 151.436 128.198  0.00  0.00     0.000 C 
ATOM     27  C   UNL d   1     150.305 151.775 130.666  0.00  0.00     0.000 C 
ENDBRANCH  24  25
ENDBRANCH  23  24
ENDBRANCH  22  23
ENDBRANCH  20  22
ENDBRANCH   5  20
BRANCH  19  28
ATOM     28  O   UNL d   1     149.023 163.890 134.894  0.00  0.00    -0.385 OA
ATOM     29  H   UNL d   1     149.236 164.210 135.789  0.00  0.00     0.210 HD
ENDBRANCH  19  28
TORSDOF 6
ENDMDL
MODEL 16
REMARK VINA RESULT:    -7.256     18.346     21.388
REMARK INTER + INTRA:         -10.251
REMARK INTER:                  -8.886
REMARK INTRA:                  -1.365
REMARK UNBOUND:                -0.662
REMARK  6 active torsions:
REMARK  status: ('A' for Active; 'I' for Inactive)
REMARK    1  A    between atoms: O_1  and  C_22 
REMARK    2  A    between atoms: C_6  and  C_13 
REMARK    3  A    between atoms: C_13  and  C_21 
REMARK    4  A    between atoms: C_21  and  C_24 
REMARK    5  A    between atoms: C_24  and  C_25 
REMARK    6  A    between atoms: C_25  and  C_26 
ROOT
ATOM      1  C   UNL d   1     112.801 129.179 147.159  0.00  0.00     0.000 C 
ATOM      2  C   UNL d   1     113.475 128.245 146.121  0.00  0.00     0.000 C 
ATOM      3  C   UNL d   1     113.917 128.997 144.865  0.00  0.00     0.005 C 
ATOM      4  C   UNL d   1     114.947 130.100 145.246  0.00  0.00     0.004 C 
ATOM      5  C   UNL d   1     112.314 128.145 148.224  0.00  0.00     0.000 C 
ATOM      6  C   UNL d   1     113.928 130.113 147.644  0.00  0.00     0.000 C 
ATOM      7  C   UNL d   1     115.337 130.975 143.988  0.00  0.00     0.015 C 
ATOM      8  C   UNL d   1     112.484 127.107 145.961  0.00  0.00     0.000 C 
ATOM      9  C   UNL d   1     114.527 130.936 146.490  0.00  0.00     0.000 C 
ATOM     10  C   UNL d   1     111.966 126.879 147.384  0.00  0.00     0.000 C 
ATOM     11  C   UNL d   1     114.515 128.054 143.812  0.00  0.00     0.025 C 
ATOM     12  C   UNL d   1     111.621 129.978 146.551  0.00  0.00     0.000 C 
ATOM     13  C   UNL d   1     115.551 130.086 142.754  0.00  0.00    -0.047 C 
ATOM     14  C   UNL d   1     116.667 131.721 144.303  0.00  0.00     0.006 C 
ATOM     15  C   UNL d   1     115.202 128.790 142.705  0.00  0.00    -0.035 C 
ATOM     16  C   UNL d   1     114.233 132.009 143.658  0.00  0.00     0.004 C 
ATOM     17  C   UNL d   1     116.205 130.742 141.553  0.00  0.00     0.051 C 
ATOM     18  C   UNL d   1     117.296 132.417 143.094  0.00  0.00     0.030 C 
ATOM     19  C   UNL d   1     117.505 131.448 141.934  0.00  0.00     0.115 C 
ENDROOT
BRANCH   5  20
ATOM     20  C   UNL d   1     111.152 128.521 149.207  0.00  0.00     0.000 C 
ATOM     21  C   UNL d   1     111.523 128.302 150.679  0.00  0.00     0.000 C 
BRANCH  20  22
ATOM     22  C   UNL d   1     109.876 127.711 148.832  0.00  0.00     0.000 C 
BRANCH  22  23
ATOM     23  C   UNL d   1     108.611 128.498 148.458  0.00  0.00     0.000 C 
BRANCH  23  24
ATOM     24  C   UNL d   1     108.261 129.689 149.358  0.00  0.00     0.000 C 
BRANCH  24  25
ATOM     25  C   UNL d   1     108.444 131.077 148.718  0.00  0.00     0.000 C 
ATOM     26  C   UNL d   1     107.151 131.897 148.752  0.00  0.00     0.000 C 
ATOM     27  C   UNL d   1     109.561 131.842 149.433  0.00  0.00     0.000 C 
ENDBRANCH  24  25
ENDBRANCH  23  24
ENDBRANCH  22  23
ENDBRANCH  20  22
ENDBRANCH   5  20
BRANCH  19  28
ATOM     28  O   UNL d   1     117.987 132.166 140.799  0.00  0.00    -0.385 OA
ATOM     29  H   UNL d   1     117.376 131.989 140.060  0.00  0.00     0.210 HD
ENDBRANCH  19  28
TORSDOF 6
ENDMDL
MODEL 17
REMARK VINA RESULT:    -7.225     55.246     59.900
REMARK INTER + INTRA:         -10.210
REMARK INTER:                  -9.133
REMARK INTRA:                  -1.077
REMARK UNBOUND:                -0.662
REMARK  6 active torsions:
REMARK  status: ('A' for Active; 'I' for Inactive)
REMARK    1  A    between atoms: O_1  and  C_22 
REMARK    2  A    between atoms: C_6  and  C_13 
REMARK    3  A    between atoms: C_13  and  C_21 
REMARK    4  A    between atoms: C_21  and  C_24 
REMARK    5  A    between atoms: C_24  and  C_25 
REMARK    6  A    between atoms: C_25  and  C_26 
ROOT
ATOM      1  C   UNL d   1     156.370  99.501 119.438  0.00  0.00     0.000 C 
ATOM      2  C   UNL d   1     155.473  98.536 118.621  0.00  0.00     0.000 C 
ATOM      3  C   UNL d   1     156.286  97.469 117.887  0.00  0.00     0.005 C 
ATOM      4  C   UNL d   1     157.086  96.616 118.913  0.00  0.00     0.004 C 
ATOM      5  C   UNL d   1     155.320 100.551 119.923  0.00  0.00     0.000 C 
ATOM      6  C   UNL d   1     156.971  98.631 120.559  0.00  0.00     0.000 C 
ATOM      7  C   UNL d   1     158.030  95.579 118.181  0.00  0.00     0.015 C 
ATOM      8  C   UNL d   1     154.600  99.463 117.796  0.00  0.00     0.000 C 
ATOM      9  C   UNL d   1     157.806  97.468 119.998  0.00  0.00     0.000 C 
ATOM     10  C   UNL d   1     154.285 100.611 118.759  0.00  0.00     0.000 C 
ATOM     11  C   UNL d   1     155.398  96.564 117.022  0.00  0.00     0.025 C 
ATOM     12  C   UNL d   1     157.474 100.152 118.568  0.00  0.00     0.000 C 
ATOM     13  C   UNL d   1     157.299  94.919 117.002  0.00  0.00    -0.047 C 
ATOM     14  C   UNL d   1     158.431  94.475 119.202  0.00  0.00     0.006 C 
ATOM     15  C   UNL d   1     156.125  95.356 116.520  0.00  0.00    -0.035 C 
ATOM     16  C   UNL d   1     159.307  96.267 117.639  0.00  0.00     0.004 C 
ATOM     17  C   UNL d   1     157.968  93.704 116.388  0.00  0.00     0.051 C 
ATOM     18  C   UNL d   1     159.144  93.274 118.578  0.00  0.00     0.030 C 
ATOM     19  C   UNL d   1     158.327  92.661 117.444  0.00  0.00     0.115 C 
ENDROOT
BRANCH   5  20
ATOM     20  C   UNL d   1     155.786 101.984 120.355  0.00  0.00     0.000 C 
ATOM     21  C   UNL d   1     156.774 101.961 121.528  0.00  0.00     0.000 C 
BRANCH  20  22
ATOM     22  C   UNL d   1     154.540 102.851 120.698  0.00  0.00     0.000 C 
BRANCH  22  23
ATOM     23  C   UNL d   1     153.427 102.207 121.539  0.00  0.00     0.000 C 
BRANCH  23  24
ATOM     24  C   UNL d   1     153.307 102.689 122.990  0.00  0.00     0.000 C 
BRANCH  24  25
ATOM     25  C   UNL d   1     153.702 101.658 124.063  0.00  0.00     0.000 C 
ATOM     26  C   UNL d   1     153.994 100.283 123.454  0.00  0.00     0.000 C 
ATOM     27  C   UNL d   1     154.925 102.150 124.840  0.00  0.00     0.000 C 
ENDBRANCH  24  25
ENDBRANCH  23  24
ENDBRANCH  22  23
ENDBRANCH  20  22
ENDBRANCH   5  20
BRANCH  19  28
ATOM     28  O   UNL d   1     159.083  91.622 116.825  0.00  0.00    -0.385 OA
ATOM     29  H   UNL d   1     159.845  92.039 116.383  0.00  0.00     0.210 HD
ENDBRANCH  19  28
TORSDOF 6
ENDMDL
MODEL 18
REMARK VINA RESULT:    -7.204     38.154     40.864
REMARK INTER + INTRA:         -10.182
REMARK INTER:                  -9.180
REMARK INTRA:                  -1.002
REMARK UNBOUND:                -0.662
REMARK  6 active torsions:
REMARK  status: ('A' for Active; 'I' for Inactive)
REMARK    1  A    between atoms: O_1  and  C_22 
REMARK    2  A    between atoms: C_6  and  C_13 
REMARK    3  A    between atoms: C_13  and  C_21 
REMARK    4  A    between atoms: C_21  and  C_24 
REMARK    5  A    between atoms: C_24  and  C_25 
REMARK    6  A    between atoms: C_25  and  C_26 
ROOT
ATOM      1  C   UNL d   1     144.662 145.836 126.440  0.00  0.00     0.000 C 
ATOM      2  C   UNL d   1     144.732 145.298 124.988  0.00  0.00     0.000 C 
ATOM      3  C   UNL d   1     145.096 143.814 124.936  0.00  0.00     0.005 C 
ATOM      4  C   UNL d   1     144.025 142.981 125.697  0.00  0.00     0.004 C 
ATOM      5  C   UNL d   1     144.449 147.363 126.187  0.00  0.00     0.000 C 
ATOM      6  C   UNL d   1     143.454 145.118 127.072  0.00  0.00     0.000 C 
ATOM      7  C   UNL d   1     144.433 141.454 125.764  0.00  0.00     0.015 C 
ATOM      8  C   UNL d   1     145.642 146.284 124.279  0.00  0.00     0.000 C 
ATOM      9  C   UNL d   1     143.631 143.590 127.074  0.00  0.00     0.000 C 
ATOM     10  C   UNL d   1     145.235 147.636 124.869  0.00  0.00     0.000 C 
ATOM     11  C   UNL d   1     145.236 143.308 123.493  0.00  0.00     0.025 C 
ATOM     12  C   UNL d   1     145.966 145.561 127.230  0.00  0.00     0.000 C 
ATOM     13  C   UNL d   1     144.989 140.981 124.414  0.00  0.00    -0.047 C 
ATOM     14  C   UNL d   1     143.160 140.621 126.100  0.00  0.00     0.006 C 
ATOM     15  C   UNL d   1     145.316 141.815 123.414  0.00  0.00    -0.035 C 
ATOM     16  C   UNL d   1     145.510 141.207 126.849  0.00  0.00     0.004 C 
ATOM     17  C   UNL d   1     145.150 139.483 124.236  0.00  0.00     0.051 C 
ATOM     18  C   UNL d   1     143.346 139.110 125.960  0.00  0.00     0.030 C 
ATOM     19  C   UNL d   1     143.865 138.732 124.575  0.00  0.00     0.115 C 
ENDROOT
BRANCH   5  20
ATOM     20  C   UNL d   1     144.815 148.402 127.302  0.00  0.00     0.000 C 
ATOM     21  C   UNL d   1     143.594 148.867 128.106  0.00  0.00     0.000 C 
BRANCH  20  22
ATOM     22  C   UNL d   1     145.548 149.614 126.659  0.00  0.00     0.000 C 
BRANCH  22  23
ATOM     23  C   UNL d   1     146.898 150.037 127.258  0.00  0.00     0.000 C 
BRANCH  23  24
ATOM     24  C   UNL d   1     147.793 150.908 126.368  0.00  0.00     0.000 C 
BRANCH  24  25
ATOM     25  C   UNL d   1     149.003 150.189 125.743  0.00  0.00     0.000 C 
ATOM     26  C   UNL d   1     148.616 149.414 124.480  0.00  0.00     0.000 C 
ATOM     27  C   UNL d   1     150.103 151.201 125.414  0.00  0.00     0.000 C 
ENDBRANCH  24  25
ENDBRANCH  23  24
ENDBRANCH  22  23
ENDBRANCH  20  22
ENDBRANCH   5  20
BRANCH  19  28
ATOM     28  O   UNL d   1     144.128 137.330 124.535  0.00  0.00    -0.385 OA
ATOM     29  H   UNL d   1     143.663 136.968 123.759  0.00  0.00     0.210 HD
ENDBRANCH  19  28
TORSDOF 6
ENDMDL
MODEL 19
REMARK VINA RESULT:    -7.123     36.309     40.236
REMARK INTER + INTRA:         -10.076
REMARK INTER:                  -8.950
REMARK INTRA:                  -1.125
REMARK UNBOUND:                -0.662
REMARK  6 active torsions:
REMARK  status: ('A' for Active; 'I' for Inactive)
REMARK    1  A    between atoms: O_1  and  C_22 
REMARK    2  A    between atoms: C_6  and  C_13 
REMARK    3  A    between atoms: C_13  and  C_21 
REMARK    4  A    between atoms: C_21  and  C_24 
REMARK    5  A    between atoms: C_24  and  C_25 
REMARK    6  A    between atoms: C_25  and  C_26 
ROOT
ATOM      1  C   UNL d   1     144.248 141.561 125.406  0.00  0.00     0.000 C 
ATOM      2  C   UNL d   1     145.070 142.346 124.352  0.00  0.00     0.000 C 
ATOM      3  C   UNL d   1     144.771 143.846 124.382  0.00  0.00     0.005 C 
ATOM      4  C   UNL d   1     145.122 144.426 125.783  0.00  0.00     0.004 C 
ATOM      5  C   UNL d   1     144.617 140.088 125.040  0.00  0.00     0.000 C 
ATOM      6  C   UNL d   1     144.790 142.037 126.768  0.00  0.00     0.000 C 
ATOM      7  C   UNL d   1     144.714 145.951 125.887  0.00  0.00     0.015 C 
ATOM      8  C   UNL d   1     144.817 141.592 123.060  0.00  0.00     0.000 C 
ATOM      9  C   UNL d   1     144.604 143.552 126.962  0.00  0.00     0.000 C 
ATOM     10  C   UNL d   1     144.816 140.125 123.495  0.00  0.00     0.000 C 
ATOM     11  C   UNL d   1     145.532 144.605 123.286  0.00  0.00     0.025 C 
ATOM     12  C   UNL d   1     142.726 141.821 125.276  0.00  0.00     0.000 C 
ATOM     13  C   UNL d   1     145.091 146.702 124.602  0.00  0.00    -0.047 C 
ATOM     14  C   UNL d   1     145.485 146.583 127.082  0.00  0.00     0.006 C 
ATOM     15  C   UNL d   1     145.473 146.089 123.470  0.00  0.00    -0.035 C 
ATOM     16  C   UNL d   1     143.191 146.110 126.115  0.00  0.00     0.004 C 
ATOM     17  C   UNL d   1     145.029 148.216 124.662  0.00  0.00     0.051 C 
ATOM     18  C   UNL d   1     145.379 148.107 127.159  0.00  0.00     0.030 C 
ATOM     19  C   UNL d   1     145.811 148.768 125.852  0.00  0.00     0.115 C 
ENDROOT
BRANCH   5  20
ATOM     20  C   UNL d   1     143.674 138.912 125.473  0.00  0.00     0.000 C 
ATOM     21  C   UNL d   1     144.341 137.946 126.459  0.00  0.00     0.000 C 
BRANCH  20  22
ATOM     22  C   UNL d   1     143.179 138.156 124.206  0.00  0.00     0.000 C 
BRANCH  22  23
ATOM     23  C   UNL d   1     141.860 137.374 124.307  0.00  0.00     0.000 C 
BRANCH  23  24
ATOM     24  C   UNL d   1     140.572 138.199 124.193  0.00  0.00     0.000 C 
BRANCH  24  25
ATOM     25  C   UNL d   1     139.903 138.566 125.530  0.00  0.00     0.000 C 
ATOM     26  C   UNL d   1     138.429 138.940 125.348  0.00  0.00     0.000 C 
ATOM     27  C   UNL d   1     140.022 137.401 126.516  0.00  0.00     0.000 C 
ENDBRANCH  24  25
ENDBRANCH  23  24
ENDBRANCH  22  23
ENDBRANCH  20  22
ENDBRANCH   5  20
BRANCH  19  28
ATOM     28  O   UNL d   1     145.587 150.174 125.937  0.00  0.00    -0.385 OA
ATOM     29  H   UNL d   1     146.444 150.616 125.796  0.00  0.00     0.210 HD
ENDBRANCH  19  28
TORSDOF 6
ENDMDL
MODEL 20
REMARK VINA RESULT:    -6.911     32.646     37.457
REMARK INTER + INTRA:          -9.796
REMARK INTER:                  -8.387
REMARK INTRA:                  -1.409
REMARK UNBOUND:                -0.662
REMARK  6 active torsions:
REMARK  status: ('A' for Active; 'I' for Inactive)
REMARK    1  A    between atoms: O_1  and  C_22 
REMARK    2  A    between atoms: C_6  and  C_13 
REMARK    3  A    between atoms: C_13  and  C_21 
REMARK    4  A    between atoms: C_21  and  C_24 
REMARK    5  A    between atoms: C_24  and  C_25 
REMARK    6  A    between atoms: C_25  and  C_26 
ROOT
ATOM      1  C   UNL d   1     125.162 125.292 121.245  0.00  0.00     0.000 C 
ATOM      2  C   UNL d   1     125.947 124.420 122.258  0.00  0.00     0.000 C 
ATOM      3  C   UNL d   1     125.568 124.730 123.707  0.00  0.00     0.005 C 
ATOM      4  C   UNL d   1     124.052 124.458 123.926  0.00  0.00     0.004 C 
ATOM      5  C   UNL d   1     125.855 124.894 119.903  0.00  0.00     0.000 C 
ATOM      6  C   UNL d   1     123.698 124.827 121.372  0.00  0.00     0.000 C 
ATOM      7  C   UNL d   1     123.601 124.881 125.382  0.00  0.00     0.015 C 
ATOM      8  C   UNL d   1     127.396 124.598 121.844  0.00  0.00     0.000 C 
ATOM      9  C   UNL d   1     123.151 125.033 122.795  0.00  0.00     0.000 C 
ATOM     10  C   UNL d   1     127.332 124.613 120.315  0.00  0.00     0.000 C 
ATOM     11  C   UNL d   1     126.403 123.916 124.706  0.00  0.00     0.025 C 
ATOM     12  C   UNL d   1     125.306 126.806 121.540  0.00  0.00     0.000 C 
ATOM     13  C   UNL d   1     124.641 124.440 126.422  0.00  0.00    -0.047 C 
ATOM     14  C   UNL d   1     122.248 124.179 125.699  0.00  0.00     0.006 C 
ATOM     15  C   UNL d   1     125.866 123.994 126.101  0.00  0.00    -0.035 C 
ATOM     16  C   UNL d   1     123.423 126.415 125.492  0.00  0.00     0.004 C 
ATOM     17  C   UNL d   1     124.217 124.515 127.876  0.00  0.00     0.051 C 
ATOM     18  C   UNL d   1     121.808 124.299 127.159  0.00  0.00     0.030 C 
ATOM     19  C   UNL d   1     122.889 123.802 128.115  0.00  0.00     0.115 C 
ENDROOT
BRANCH   5  20
ATOM     20  C   UNL d   1     125.774 125.851 118.665  0.00  0.00     0.000 C 
ATOM     21  C   UNL d   1     124.374 125.899 118.040  0.00  0.00     0.000 C 
BRANCH  20  22
ATOM     22  C   UNL d   1     126.836 125.424 117.611  0.00  0.00     0.000 C 
BRANCH  22  23
ATOM     23  C   UNL d   1     127.623 126.531 116.894  0.00  0.00     0.000 C 
BRANCH  23  24
ATOM     24  C   UNL d   1     128.952 126.945 117.537  0.00  0.00     0.000 C 
BRANCH  24  25
ATOM     25  C   UNL d   1     128.885 128.175 118.460  0.00  0.00     0.000 C 
ATOM     26  C   UNL d   1     127.655 129.040 118.170  0.00  0.00     0.000 C 
ATOM     27  C   UNL d   1     128.872 127.732 119.926  0.00  0.00     0.000 C 
ENDBRANCH  24  25
ENDBRANCH  23  24
ENDBRANCH  22  23
ENDBRANCH  20  22
ENDBRANCH   5  20
BRANCH  19  28
ATOM     28  O   UNL d   1     122.476 124.039 129.460  0.00  0.00    -0.385 OA
ATOM     29  H   UNL d   1     123.281 124.129 130.002  0.00  0.00     0.210 HD
ENDBRANCH  19  28
TORSDOF 6
ENDMDL
