MODEL 1
REMARK VINA RESULT:    -9.057      0.000      0.000
REMARK INTER + INTRA:         -12.707
REMARK INTER:                 -11.970
REMARK INTRA:                  -0.737
REMARK UNBOUND:                -0.737
REMARK  6 active torsions:
REMARK  status: ('A' for Active; 'I' for Inactive)
REMARK    1  A    between atoms: O_1  and  C_22 
REMARK    2  A    between atoms: C_6  and  C_13 
REMARK    3  A    between atoms: C_13  and  C_21 
REMARK    4  A    between atoms: C_21  and  C_24 
REMARK    5  A    between atoms: C_24  and  C_25 
REMARK    6  A    between atoms: C_25  and  C_26 
ROOT
ATOM      1  C   UNL d   1     127.964 130.466 158.677  0.00  0.00     0.000 C 
ATOM      2  C   UNL d   1     127.577 131.678 159.562  0.00  0.00     0.000 C 
ATOM      3  C   UNL d   1     126.677 131.279 160.732  0.00  0.00     0.005 C 
ATOM      4  C   UNL d   1     127.413 130.249 161.637  0.00  0.00     0.004 C 
ATOM      5  C   UNL d   1     128.716 131.174 157.505  0.00  0.00     0.000 C 
ATOM      6  C   UNL d   1     128.860 129.589 159.574  0.00  0.00     0.000 C 
ATOM      7  C   UNL d   1     126.466 129.726 162.791  0.00  0.00     0.015 C 
ATOM      8  C   UNL d   1     127.050 132.698 158.569  0.00  0.00     0.000 C 
ATOM      9  C   UNL d   1     128.120 129.117 160.838  0.00  0.00     0.000 C 
ATOM     10  C   UNL d   1     127.985 132.544 157.367  0.00  0.00     0.000 C 
ATOM     11  C   UNL d   1     126.237 132.495 161.559  0.00  0.00     0.025 C 
ATOM     12  C   UNL d   1     126.723 129.686 158.175  0.00  0.00     0.000 C 
ATOM     13  C   UNL d   1     125.663 130.883 163.402  0.00  0.00    -0.047 C 
ATOM     14  C   UNL d   1     127.354 129.092 163.902  0.00  0.00     0.006 C 
ATOM     15  C   UNL d   1     125.594 132.107 162.853  0.00  0.00    -0.035 C 
ATOM     16  C   UNL d   1     125.469 128.666 162.262  0.00  0.00     0.004 C 
ATOM     17  C   UNL d   1     124.935 130.590 164.699  0.00  0.00     0.051 C 
ATOM     18  C   UNL d   1     126.600 128.759 165.191  0.00  0.00     0.030 C 
ATOM     19  C   UNL d   1     125.865 129.977 165.744  0.00  0.00     0.115 C 
ENDROOT
BRANCH   5  20
ATOM     20  C   UNL d   1     128.863 130.457 156.119  0.00  0.00     0.000 C 
ATOM     21  C   UNL d   1     130.323 130.175 155.747  0.00  0.00     0.000 C 
BRANCH  20  22
ATOM     22  C   UNL d   1     128.166 131.309 155.020  0.00  0.00     0.000 C 
BRANCH  22  23
ATOM     23  C   UNL d   1     129.058 132.053 154.015  0.00  0.00     0.000 C 
BRANCH  23  24
ATOM     24  C   UNL d   1     128.720 133.529 153.769  0.00  0.00     0.000 C 
BRANCH  24  25
ATOM     25  C   UNL d   1     128.546 133.929 152.292  0.00  0.00     0.000 C 
ATOM     26  C   UNL d   1     127.328 134.834 152.086  0.00  0.00     0.000 C 
ATOM     27  C   UNL d   1     129.807 134.634 151.786  0.00  0.00     0.000 C 
ENDBRANCH  24  25
ENDBRANCH  23  24
ENDBRANCH  22  23
ENDBRANCH  20  22
ENDBRANCH   5  20
BRANCH  19  28
ATOM     28  O   UNL d   1     125.091 129.588 166.877  0.00  0.00    -0.385 OA
ATOM     29  H   UNL d   1     125.712 129.377 167.597  0.00  0.00     0.210 HD
ENDBRANCH  19  28
TORSDOF 6
ENDMDL
MODEL 2
REMARK VINA RESULT:    -8.702      2.187      2.961
REMARK INTER + INTRA:         -12.237
REMARK INTER:                 -10.859
REMARK INTRA:                  -1.378
REMARK UNBOUND:                -0.737
REMARK  6 active torsions:
REMARK  status: ('A' for Active; 'I' for Inactive)
REMARK    1  A    between atoms: O_1  and  C_22 
REMARK    2  A    between atoms: C_6  and  C_13 
REMARK    3  A    between atoms: C_13  and  C_21 
REMARK    4  A    between atoms: C_21  and  C_24 
REMARK    5  A    between atoms: C_24  and  C_25 
REMARK    6  A    between atoms: C_25  and  C_26 
ROOT
ATOM      1  C   UNL d   1     128.422 129.467 158.826  0.00  0.00     0.000 C 
ATOM      2  C   UNL d   1     128.138 130.831 159.506  0.00  0.00     0.000 C 
ATOM      3  C   UNL d   1     127.047 130.731 160.573  0.00  0.00     0.005 C 
ATOM      4  C   UNL d   1     127.485 129.733 161.683  0.00  0.00     0.004 C 
ATOM      5  C   UNL d   1     129.419 129.893 157.701  0.00  0.00     0.000 C 
ATOM      6  C   UNL d   1     129.042 128.593 159.934  0.00  0.00     0.000 C 
ATOM      7  C   UNL d   1     126.330 129.515 162.742  0.00  0.00     0.015 C 
ATOM      8  C   UNL d   1     127.914 131.777 158.340  0.00  0.00     0.000 C 
ATOM      9  C   UNL d   1     128.085 128.410 161.124  0.00  0.00     0.000 C 
ATOM     10  C   UNL d   1     128.950 131.326 157.308  0.00  0.00     0.000 C 
ATOM     11  C   UNL d   1     126.719 132.099 161.188  0.00  0.00     0.025 C 
ATOM     12  C   UNL d   1     127.139 128.823 158.243  0.00  0.00     0.000 C 
ATOM     13  C   UNL d   1     125.662 130.851 163.099  0.00  0.00    -0.047 C 
ATOM     14  C   UNL d   1     126.956 128.909 164.032  0.00  0.00     0.006 C 
ATOM     15  C   UNL d   1     125.866 131.988 162.413  0.00  0.00    -0.035 C 
ATOM     16  C   UNL d   1     125.242 128.557 162.199  0.00  0.00     0.004 C 
ATOM     17  C   UNL d   1     124.742 130.846 164.304  0.00  0.00     0.051 C 
ATOM     18  C   UNL d   1     126.005 128.868 165.230  0.00  0.00     0.030 C 
ATOM     19  C   UNL d   1     125.422 130.246 165.532  0.00  0.00     0.115 C 
ENDROOT
BRANCH   5  20
ATOM     20  C   UNL d   1     129.613 128.983 156.439  0.00  0.00     0.000 C 
ATOM     21  C   UNL d   1     130.944 128.221 156.453  0.00  0.00     0.000 C 
BRANCH  20  22
ATOM     22  C   UNL d   1     129.485 129.850 155.153  0.00  0.00     0.000 C 
BRANCH  22  23
ATOM     23  C   UNL d   1     128.545 129.354 154.044  0.00  0.00     0.000 C 
BRANCH  23  24
ATOM     24  C   UNL d   1     127.087 129.106 154.451  0.00  0.00     0.000 C 
BRANCH  24  25
ATOM     25  C   UNL d   1     126.502 127.750 154.015  0.00  0.00     0.000 C 
ATOM     26  C   UNL d   1     127.257 127.159 152.821  0.00  0.00     0.000 C 
ATOM     27  C   UNL d   1     126.532 126.764 155.185  0.00  0.00     0.000 C 
ENDBRANCH  24  25
ENDBRANCH  23  24
ENDBRANCH  22  23
ENDBRANCH  20  22
ENDBRANCH   5  20
BRANCH  19  28
ATOM     28  O   UNL d   1     124.461 130.132 166.580  0.00  0.00    -0.385 OA
ATOM     29  H   UNL d   1     124.759 130.700 167.313  0.00  0.00     0.210 HD
ENDBRANCH  19  28
TORSDOF 6
ENDMDL
MODEL 3
REMARK VINA RESULT:    -8.215      2.668      3.993
REMARK INTER + INTRA:         -11.593
REMARK INTER:                 -10.058
REMARK INTRA:                  -1.535
REMARK UNBOUND:                -0.737
REMARK  6 active torsions:
REMARK  status: ('A' for Active; 'I' for Inactive)
REMARK    1  A    between atoms: O_1  and  C_22 
REMARK    2  A    between atoms: C_6  and  C_13 
REMARK    3  A    between atoms: C_13  and  C_21 
REMARK    4  A    between atoms: C_21  and  C_24 
REMARK    5  A    between atoms: C_24  and  C_25 
REMARK    6  A    between atoms: C_25  and  C_26 
ROOT
ATOM      1  C   UNL d   1     129.909 128.451 157.660  0.00  0.00     0.000 C 
ATOM      2  C   UNL d   1     129.738 129.930 158.092  0.00  0.00     0.000 C 
ATOM      3  C   UNL d   1     128.502 130.140 158.968  0.00  0.00     0.005 C 
ATOM      4  C   UNL d   1     128.619 129.281 160.260  0.00  0.00     0.004 C 
ATOM      5  C   UNL d   1     131.111 128.563 156.668  0.00  0.00     0.000 C 
ATOM      6  C   UNL d   1     130.223 127.691 158.963  0.00  0.00     0.000 C 
ATOM      7  C   UNL d   1     127.304 129.384 161.133  0.00  0.00     0.015 C 
ATOM      8  C   UNL d   1     129.831 130.702 156.788  0.00  0.00     0.000 C 
ATOM      9  C   UNL d   1     129.088 127.822 159.992  0.00  0.00     0.000 C 
ATOM     10  C   UNL d   1     130.925 129.965 156.012  0.00  0.00     0.000 C 
ATOM     11  C   UNL d   1     128.299 131.619 159.329  0.00  0.00     0.025 C 
ATOM     12  C   UNL d   1     128.641 127.893 156.966  0.00  0.00     0.000 C 
ATOM     13  C   UNL d   1     126.802 130.833 161.190  0.00  0.00    -0.047 C 
ATOM     14  C   UNL d   1     127.639 128.913 162.579  0.00  0.00     0.006 C 
ATOM     15  C   UNL d   1     127.272 131.812 160.400  0.00  0.00    -0.035 C 
ATOM     16  C   UNL d   1     126.174 128.498 160.553  0.00  0.00     0.004 C 
ATOM     17  C   UNL d   1     125.727 131.136 162.216  0.00  0.00     0.051 C 
ATOM     18  C   UNL d   1     126.530 129.183 163.598  0.00  0.00     0.030 C 
ATOM     19  C   UNL d   1     126.124 130.654 163.610  0.00  0.00     0.115 C 
ENDROOT
BRANCH   5  20
ATOM     20  C   UNL d   1     131.345 127.449 155.591  0.00  0.00     0.000 C 
ATOM     21  C   UNL d   1     132.546 126.552 155.913  0.00  0.00     0.000 C 
BRANCH  20  22
ATOM     22  C   UNL d   1     131.507 128.109 154.191  0.00  0.00     0.000 C 
BRANCH  22  23
ATOM     23  C   UNL d   1     130.489 127.742 153.101  0.00  0.00     0.000 C 
BRANCH  23  24
ATOM     24  C   UNL d   1     129.057 128.252 153.310  0.00  0.00     0.000 C 
BRANCH  24  25
ATOM     25  C   UNL d   1     127.947 127.204 153.111  0.00  0.00     0.000 C 
ATOM     26  C   UNL d   1     128.279 125.882 153.809  0.00  0.00     0.000 C 
ATOM     27  C   UNL d   1     126.614 127.745 153.633  0.00  0.00     0.000 C 
ENDBRANCH  24  25
ENDBRANCH  23  24
ENDBRANCH  22  23
ENDBRANCH  20  22
ENDBRANCH   5  20
BRANCH  19  28
ATOM     28  O   UNL d   1     125.016 130.831 164.490  0.00  0.00    -0.385 OA
ATOM     29  H   UNL d   1     125.066 131.737 164.845  0.00  0.00     0.210 HD
ENDBRANCH  19  28
TORSDOF 6
ENDMDL
MODEL 4
REMARK VINA RESULT:    -8.007     54.297     58.892
REMARK INTER + INTRA:         -11.319
REMARK INTER:                 -10.261
REMARK INTRA:                  -1.058
REMARK UNBOUND:                -0.737
REMARK  6 active torsions:
REMARK  status: ('A' for Active; 'I' for Inactive)
REMARK    1  A    between atoms: O_1  and  C_22 
REMARK    2  A    between atoms: C_6  and  C_13 
REMARK    3  A    between atoms: C_13  and  C_21 
REMARK    4  A    between atoms: C_21  and  C_24 
REMARK    5  A    between atoms: C_24  and  C_25 
REMARK    6  A    between atoms: C_25  and  C_26 
ROOT
ATOM      1  C   UNL d   1     161.429 105.565 120.685  0.00  0.00     0.000 C 
ATOM      2  C   UNL d   1     161.443 106.371 119.361  0.00  0.00     0.000 C 
ATOM      3  C   UNL d   1     162.624 105.996 118.466  0.00  0.00     0.005 C 
ATOM      4  C   UNL d   1     162.549 104.486 118.098  0.00  0.00     0.004 C 
ATOM      5  C   UNL d   1     160.254 106.256 121.448  0.00  0.00     0.000 C 
ATOM      6  C   UNL d   1     161.148 104.110 120.261  0.00  0.00     0.000 C 
ATOM      7  C   UNL d   1     163.820 104.037 117.269  0.00  0.00     0.015 C 
ATOM      8  C   UNL d   1     161.318 107.814 119.815  0.00  0.00     0.000 C 
ATOM      9  C   UNL d   1     162.232 103.568 119.314  0.00  0.00     0.000 C 
ATOM     10  C   UNL d   1     160.325 107.740 120.977  0.00  0.00     0.000 C 
ATOM     11  C   UNL d   1     162.673 106.851 117.192  0.00  0.00     0.025 C 
ATOM     12  C   UNL d   1     162.766 105.684 121.459  0.00  0.00     0.000 C 
ATOM     13  C   UNL d   1     164.179 105.092 116.213  0.00  0.00    -0.047 C 
ATOM     14  C   UNL d   1     163.487 102.699 116.548  0.00  0.00     0.006 C 
ATOM     15  C   UNL d   1     163.643 106.322 116.182  0.00  0.00    -0.035 C 
ATOM     16  C   UNL d   1     165.048 103.833 118.191  0.00  0.00     0.004 C 
ATOM     17  C   UNL d   1     165.187 104.676 115.158  0.00  0.00     0.051 C 
ATOM     18  C   UNL d   1     164.531 102.266 115.518  0.00  0.00     0.030 C 
ATOM     19  C   UNL d   1     164.794 103.361 114.488  0.00  0.00     0.115 C 
ENDROOT
BRANCH   5  20
ATOM     20  C   UNL d   1     160.163 106.150 123.009  0.00  0.00     0.000 C 
ATOM     21  C   UNL d   1     158.742 105.853 123.504  0.00  0.00     0.000 C 
BRANCH  20  22
ATOM     22  C   UNL d   1     160.707 107.460 123.648  0.00  0.00     0.000 C 
BRANCH  22  23
ATOM     23  C   UNL d   1     159.731 108.322 124.462  0.00  0.00     0.000 C 
BRANCH  23  24
ATOM     24  C   UNL d   1     159.854 109.841 124.284  0.00  0.00     0.000 C 
BRANCH  24  25
ATOM     25  C   UNL d   1     158.780 110.490 123.392  0.00  0.00     0.000 C 
ATOM     26  C   UNL d   1     157.557 109.584 123.219  0.00  0.00     0.000 C 
ATOM     27  C   UNL d   1     158.348 111.835 123.982  0.00  0.00     0.000 C 
ENDBRANCH  24  25
ENDBRANCH  23  24
ENDBRANCH  22  23
ENDBRANCH  20  22
ENDBRANCH   5  20
BRANCH  19  28
ATOM     28  O   UNL d   1     165.852 102.953 113.622  0.00  0.00    -0.385 OA
ATOM     29  H   UNL d   1     165.489 102.905 112.719  0.00  0.00     0.210 HD
ENDBRANCH  19  28
TORSDOF 6
ENDMDL
MODEL 5
REMARK VINA RESULT:    -7.892      2.123      3.643
REMARK INTER + INTRA:         -11.167
REMARK INTER:                 -10.318
REMARK INTRA:                  -0.849
REMARK UNBOUND:                -0.737
REMARK  6 active torsions:
REMARK  status: ('A' for Active; 'I' for Inactive)
REMARK    1  A    between atoms: O_1  and  C_22 
REMARK    2  A    between atoms: C_6  and  C_13 
REMARK    3  A    between atoms: C_13  and  C_21 
REMARK    4  A    between atoms: C_21  and  C_24 
REMARK    5  A    between atoms: C_24  and  C_25 
REMARK    6  A    between atoms: C_25  and  C_26 
ROOT
ATOM      1  C   UNL d   1     128.227 128.600 158.949  0.00  0.00     0.000 C 
ATOM      2  C   UNL d   1     128.348 127.791 160.266  0.00  0.00     0.000 C 
ATOM      3  C   UNL d   1     127.819 128.567 161.474  0.00  0.00     0.005 C 
ATOM      4  C   UNL d   1     126.316 128.908 161.265  0.00  0.00     0.004 C 
ATOM      5  C   UNL d   1     128.976 127.662 157.949  0.00  0.00     0.000 C 
ATOM      6  C   UNL d   1     126.712 128.725 158.697  0.00  0.00     0.000 C 
ATOM      7  C   UNL d   1     125.767 129.812 162.441  0.00  0.00     0.015 C 
ATOM      8  C   UNL d   1     129.797 127.341 160.283  0.00  0.00     0.000 C 
ATOM      9  C   UNL d   1     125.997 129.459 159.845  0.00  0.00     0.000 C 
ATOM     10  C   UNL d   1     130.082 126.994 158.820  0.00  0.00     0.000 C 
ATOM     11  C   UNL d   1     128.011 127.790 162.784  0.00  0.00     0.025 C 
ATOM     12  C   UNL d   1     128.904 129.990 159.050  0.00  0.00     0.000 C 
ATOM     13  C   UNL d   1     126.283 129.310 163.797  0.00  0.00    -0.047 C 
ATOM     14  C   UNL d   1     124.212 129.731 162.437  0.00  0.00     0.006 C 
ATOM     15  C   UNL d   1     127.260 128.398 163.927  0.00  0.00    -0.035 C 
ATOM     16  C   UNL d   1     126.206 131.287 162.268  0.00  0.00     0.004 C 
ATOM     17  C   UNL d   1     125.619 129.891 165.031  0.00  0.00     0.051 C 
ATOM     18  C   UNL d   1     123.550 130.359 163.664  0.00  0.00     0.030 C 
ATOM     19  C   UNL d   1     124.098 129.772 164.962  0.00  0.00     0.115 C 
ENDROOT
BRANCH   5  20
ATOM     20  C   UNL d   1     129.563 128.244 156.617  0.00  0.00     0.000 C 
ATOM     21  C   UNL d   1     129.743 127.178 155.530  0.00  0.00     0.000 C 
BRANCH  20  22
ATOM     22  C   UNL d   1     130.912 128.961 156.918  0.00  0.00     0.000 C 
BRANCH  22  23
ATOM     23  C   UNL d   1     131.586 129.731 155.773  0.00  0.00     0.000 C 
BRANCH  23  24
ATOM     24  C   UNL d   1     130.831 130.956 155.242  0.00  0.00     0.000 C 
BRANCH  24  25
ATOM     25  C   UNL d   1     130.013 131.733 156.289  0.00  0.00     0.000 C 
ATOM     26  C   UNL d   1     130.644 133.090 156.614  0.00  0.00     0.000 C 
ATOM     27  C   UNL d   1     128.579 131.935 155.793  0.00  0.00     0.000 C 
ENDBRANCH  24  25
ENDBRANCH  23  24
ENDBRANCH  22  23
ENDBRANCH  20  22
ENDBRANCH   5  20
BRANCH  19  28
ATOM     28  O   UNL d   1     123.532 130.468 166.072  0.00  0.00    -0.385 OA
ATOM     29  H   UNL d   1     123.089 129.808 166.635  0.00  0.00     0.210 HD
ENDBRANCH  19  28
TORSDOF 6
ENDMDL
MODEL 6
REMARK VINA RESULT:    -7.879     38.650     44.251
REMARK INTER + INTRA:         -11.149
REMARK INTER:                 -10.724
REMARK INTRA:                  -0.425
REMARK UNBOUND:                -0.737
REMARK  6 active torsions:
REMARK  status: ('A' for Active; 'I' for Inactive)
REMARK    1  A    between atoms: O_1  and  C_22 
REMARK    2  A    between atoms: C_6  and  C_13 
REMARK    3  A    between atoms: C_13  and  C_21 
REMARK    4  A    between atoms: C_21  and  C_24 
REMARK    5  A    between atoms: C_24  and  C_25 
REMARK    6  A    between atoms: C_25  and  C_26 
ROOT
ATOM      1  C   UNL d   1     149.658 152.813 128.816  0.00  0.00     0.000 C 
ATOM      2  C   UNL d   1     150.490 152.284 127.620  0.00  0.00     0.000 C 
ATOM      3  C   UNL d   1     149.623 151.576 126.578  0.00  0.00     0.005 C 
ATOM      4  C   UNL d   1     148.562 152.564 126.014  0.00  0.00     0.004 C 
ATOM      5  C   UNL d   1     150.787 153.318 129.769  0.00  0.00     0.000 C 
ATOM      6  C   UNL d   1     148.775 153.928 128.223  0.00  0.00     0.000 C 
ATOM      7  C   UNL d   1     147.572 151.833 125.020  0.00  0.00     0.015 C 
ATOM      8  C   UNL d   1     151.607 151.495 128.276  0.00  0.00     0.000 C 
ATOM      9  C   UNL d   1     147.847 153.399 127.116  0.00  0.00     0.000 C 
ATOM     10  C   UNL d   1     151.968 152.337 129.503  0.00  0.00     0.000 C 
ATOM     11  C   UNL d   1     150.464 150.990 125.434  0.00  0.00     0.025 C 
ATOM     12  C   UNL d   1     148.804 151.700 129.474  0.00  0.00     0.000 C 
ATOM     13  C   UNL d   1     148.341 150.883 124.090  0.00  0.00    -0.047 C 
ATOM     14  C   UNL d   1     146.860 152.913 124.154  0.00  0.00     0.006 C 
ATOM     15  C   UNL d   1     149.626 150.542 124.278  0.00  0.00    -0.035 C 
ATOM     16  C   UNL d   1     146.511 151.008 125.789  0.00  0.00     0.004 C 
ATOM     17  C   UNL d   1     147.575 150.334 122.902  0.00  0.00     0.051 C 
ATOM     18  C   UNL d   1     146.054 152.346 122.984  0.00  0.00     0.030 C 
ATOM     19  C   UNL d   1     146.910 151.447 122.095  0.00  0.00     0.115 C 
ENDROOT
BRANCH   5  20
ATOM     20  C   UNL d   1     150.505 153.478 131.303  0.00  0.00     0.000 C 
ATOM     21  C   UNL d   1     150.657 152.162 132.077  0.00  0.00     0.000 C 
BRANCH  20  22
ATOM     22  C   UNL d   1     149.084 154.078 131.507  0.00  0.00     0.000 C 
BRANCH  22  23
ATOM     23  C   UNL d   1     148.426 153.913 132.885  0.00  0.00     0.000 C 
BRANCH  23  24
ATOM     24  C   UNL d   1     146.914 153.657 132.889  0.00  0.00     0.000 C 
BRANCH  24  25
ATOM     25  C   UNL d   1     146.488 152.207 132.597  0.00  0.00     0.000 C 
ATOM     26  C   UNL d   1     147.452 151.192 133.220  0.00  0.00     0.000 C 
ATOM     27  C   UNL d   1     145.070 151.959 133.117  0.00  0.00     0.000 C 
ENDBRANCH  24  25
ENDBRANCH  23  24
ENDBRANCH  22  23
ENDBRANCH  20  22
ENDBRANCH   5  20
BRANCH  19  28
ATOM     28  O   UNL d   1     146.088 150.857 121.090  0.00  0.00    -0.385 OA
ATOM     29  H   UNL d   1     146.597 150.132 120.684  0.00  0.00     0.210 HD
ENDBRANCH  19  28
TORSDOF 6
ENDMDL
MODEL 7
REMARK VINA RESULT:    -7.858     32.208     35.947
REMARK INTER + INTRA:         -11.121
REMARK INTER:                  -9.742
REMARK INTRA:                  -1.379
REMARK UNBOUND:                -0.737
REMARK  6 active torsions:
REMARK  status: ('A' for Active; 'I' for Inactive)
REMARK    1  A    between atoms: O_1  and  C_22 
REMARK    2  A    between atoms: C_6  and  C_13 
REMARK    3  A    between atoms: C_13  and  C_21 
REMARK    4  A    between atoms: C_21  and  C_24 
REMARK    5  A    between atoms: C_24  and  C_25 
REMARK    6  A    between atoms: C_25  and  C_26 
ROOT
ATOM      1  C   UNL d   1     155.592 137.787 136.970  0.00  0.00     0.000 C 
ATOM      2  C   UNL d   1     154.197 137.599 137.618  0.00  0.00     0.000 C 
ATOM      3  C   UNL d   1     154.194 137.959 139.104  0.00  0.00     0.005 C 
ATOM      4  C   UNL d   1     154.603 139.449 139.287  0.00  0.00     0.004 C 
ATOM      5  C   UNL d   1     155.344 137.199 135.544  0.00  0.00     0.000 C 
ATOM      6  C   UNL d   1     155.843 139.307 137.000  0.00  0.00     0.000 C 
ATOM      7  C   UNL d   1     154.725 139.824 140.819  0.00  0.00     0.015 C 
ATOM      8  C   UNL d   1     153.800 136.188 137.223  0.00  0.00     0.000 C 
ATOM      9  C   UNL d   1     155.840 139.860 138.436  0.00  0.00     0.000 C 
ATOM     10  C   UNL d   1     154.303 136.064 135.783  0.00  0.00     0.000 C 
ATOM     11  C   UNL d   1     152.828 137.700 139.756  0.00  0.00     0.025 C 
ATOM     12  C   UNL d   1     156.699 137.011 137.726  0.00  0.00     0.000 C 
ATOM     13  C   UNL d   1     153.564 139.219 141.620  0.00  0.00    -0.047 C 
ATOM     14  C   UNL d   1     154.670 141.374 140.950  0.00  0.00     0.006 C 
ATOM     15  C   UNL d   1     152.722 138.298 141.123  0.00  0.00    -0.035 C 
ATOM     16  C   UNL d   1     156.054 139.303 141.420  0.00  0.00     0.004 C 
ATOM     17  C   UNL d   1     153.384 139.725 143.038  0.00  0.00     0.051 C 
ATOM     18  C   UNL d   1     154.534 141.876 142.389  0.00  0.00     0.030 C 
ATOM     19  C   UNL d   1     153.332 141.251 143.091  0.00  0.00     0.115 C 
ENDROOT
BRANCH   5  20
ATOM     20  C   UNL d   1     156.553 136.700 134.680  0.00  0.00     0.000 C 
ATOM     21  C   UNL d   1     157.430 137.847 134.164  0.00  0.00     0.000 C 
BRANCH  20  22
ATOM     22  C   UNL d   1     156.022 135.835 133.499  0.00  0.00     0.000 C 
BRANCH  22  23
ATOM     23  C   UNL d   1     156.619 134.433 133.312  0.00  0.00     0.000 C 
BRANCH  23  24
ATOM     24  C   UNL d   1     156.636 133.530 134.552  0.00  0.00     0.000 C 
BRANCH  24  25
ATOM     25  C   UNL d   1     158.030 133.235 135.135  0.00  0.00     0.000 C 
ATOM     26  C   UNL d   1     159.150 133.723 134.212  0.00  0.00     0.000 C 
ATOM     27  C   UNL d   1     158.173 133.887 136.512  0.00  0.00     0.000 C 
ENDBRANCH  24  25
ENDBRANCH  23  24
ENDBRANCH  22  23
ENDBRANCH  20  22
ENDBRANCH   5  20
BRANCH  19  28
ATOM     28  O   UNL d   1     153.316 141.662 144.457  0.00  0.00    -0.385 OA
ATOM     29  H   UNL d   1     154.238 141.833 144.722  0.00  0.00     0.210 HD
ENDBRANCH  19  28
TORSDOF 6
ENDMDL
MODEL 8
REMARK VINA RESULT:    -7.829     47.615     52.630
REMARK INTER + INTRA:         -11.083
REMARK INTER:                  -9.394
REMARK INTRA:                  -1.689
REMARK UNBOUND:                -0.737
REMARK  6 active torsions:
REMARK  status: ('A' for Active; 'I' for Inactive)
REMARK    1  A    between atoms: O_1  and  C_22 
REMARK    2  A    between atoms: C_6  and  C_13 
REMARK    3  A    between atoms: C_13  and  C_21 
REMARK    4  A    between atoms: C_21  and  C_24 
REMARK    5  A    between atoms: C_24  and  C_25 
REMARK    6  A    between atoms: C_25  and  C_26 
ROOT
ATOM      1  C   UNL d   1     144.223 137.284 111.205  0.00  0.00     0.000 C 
ATOM      2  C   UNL d   1     145.077 136.402 110.259  0.00  0.00     0.000 C 
ATOM      3  C   UNL d   1     144.216 135.590 109.289  0.00  0.00     0.005 C 
ATOM      4  C   UNL d   1     143.371 136.551 108.404  0.00  0.00     0.004 C 
ATOM      5  C   UNL d   1     145.321 137.847 112.164  0.00  0.00     0.000 C 
ATOM      6  C   UNL d   1     143.575 138.339 110.287  0.00  0.00     0.000 C 
ATOM      7  C   UNL d   1     142.382 135.743 107.470  0.00  0.00     0.015 C 
ATOM      8  C   UNL d   1     145.998 135.648 111.200  0.00  0.00     0.000 C 
ATOM      9  C   UNL d   1     142.687 137.694 109.209  0.00  0.00     0.000 C 
ATOM     10  C   UNL d   1     146.363 136.692 112.258  0.00  0.00     0.000 C 
ATOM     11  C   UNL d   1     145.064 134.663 108.407  0.00  0.00     0.025 C 
ATOM     12  C   UNL d   1     143.157 136.462 111.971  0.00  0.00     0.000 C 
ATOM     13  C   UNL d   1     143.085 134.521 106.862  0.00  0.00    -0.047 C 
ATOM     14  C   UNL d   1     141.922 136.681 106.316  0.00  0.00     0.006 C 
ATOM     15  C   UNL d   1     144.282 134.074 107.275  0.00  0.00    -0.035 C 
ATOM     16  C   UNL d   1     141.142 135.251 108.257  0.00  0.00     0.004 C 
ATOM     17  C   UNL d   1     142.361 133.819 105.729  0.00  0.00     0.051 C 
ATOM     18  C   UNL d   1     141.154 135.971 105.200  0.00  0.00     0.030 C 
ATOM     19  C   UNL d   1     141.947 134.796 104.632  0.00  0.00     0.115 C 
ENDROOT
BRANCH   5  20
ATOM     20  C   UNL d   1     144.923 138.380 113.584  0.00  0.00     0.000 C 
ATOM     21  C   UNL d   1     144.939 139.911 113.670  0.00  0.00     0.000 C 
BRANCH  20  22
ATOM     22  C   UNL d   1     145.865 137.755 114.653  0.00  0.00     0.000 C 
BRANCH  22  23
ATOM     23  C   UNL d   1     145.221 136.981 115.813  0.00  0.00     0.000 C 
BRANCH  23  24
ATOM     24  C   UNL d   1     143.786 136.488 115.586  0.00  0.00     0.000 C 
BRANCH  24  25
ATOM     25  C   UNL d   1     143.612 134.959 115.540  0.00  0.00     0.000 C 
ATOM     26  C   UNL d   1     142.226 134.557 115.028  0.00  0.00     0.000 C 
ATOM     27  C   UNL d   1     144.693 134.333 114.655  0.00  0.00     0.000 C 
ENDBRANCH  24  25
ENDBRANCH  23  24
ENDBRANCH  22  23
ENDBRANCH  20  22
ENDBRANCH   5  20
BRANCH  19  28
ATOM     28  O   UNL d   1     141.144 134.102 103.678  0.00  0.00    -0.385 OA
ATOM     29  H   UNL d   1     140.933 134.729 102.962  0.00  0.00     0.210 HD
ENDBRANCH  19  28
TORSDOF 6
ENDMDL
MODEL 9
REMARK VINA RESULT:    -7.808      5.070      8.291
REMARK INTER + INTRA:         -11.056
REMARK INTER:                  -9.488
REMARK INTRA:                  -1.568
REMARK UNBOUND:                -0.737
REMARK  6 active torsions:
REMARK  status: ('A' for Active; 'I' for Inactive)
REMARK    1  A    between atoms: O_1  and  C_22 
REMARK    2  A    between atoms: C_6  and  C_13 
REMARK    3  A    between atoms: C_13  and  C_21 
REMARK    4  A    between atoms: C_21  and  C_24 
REMARK    5  A    between atoms: C_24  and  C_25 
REMARK    6  A    between atoms: C_25  and  C_26 
ROOT
ATOM      1  C   UNL d   1     128.862 128.400 157.911  0.00  0.00     0.000 C 
ATOM      2  C   UNL d   1     128.091 127.707 156.758  0.00  0.00     0.000 C 
ATOM      3  C   UNL d   1     129.021 126.940 155.817  0.00  0.00     0.005 C 
ATOM      4  C   UNL d   1     129.779 125.836 156.609  0.00  0.00     0.004 C 
ATOM      5  C   UNL d   1     127.718 129.221 158.588  0.00  0.00     0.000 C 
ATOM      6  C   UNL d   1     129.415 127.246 158.769  0.00  0.00     0.000 C 
ATOM      7  C   UNL d   1     130.836 125.100 155.691  0.00  0.00     0.015 C 
ATOM      8  C   UNL d   1     127.239 128.818 156.173  0.00  0.00     0.000 C 
ATOM      9  C   UNL d   1     130.358 126.333 157.965  0.00  0.00     0.000 C 
ATOM     10  C   UNL d   1     126.782 129.606 157.403  0.00  0.00     0.000 C 
ATOM     11  C   UNL d   1     128.259 126.319 154.638  0.00  0.00     0.025 C 
ATOM     12  C   UNL d   1     129.996 129.317 157.389  0.00  0.00     0.000 C 
ATOM     13  C   UNL d   1     130.245 124.813 154.304  0.00  0.00    -0.047 C 
ATOM     14  C   UNL d   1     131.212 123.747 156.365  0.00  0.00     0.006 C 
ATOM     15  C   UNL d   1     129.091 125.343 153.866  0.00  0.00    -0.035 C 
ATOM     16  C   UNL d   1     132.114 125.956 155.509  0.00  0.00     0.004 C 
ATOM     17  C   UNL d   1     131.029 123.864 153.418  0.00  0.00     0.051 C 
ATOM     18  C   UNL d   1     132.041 122.816 155.478  0.00  0.00     0.030 C 
ATOM     19  C   UNL d   1     131.356 122.558 154.139  0.00  0.00     0.115 C 
ENDROOT
BRANCH   5  20
ATOM     20  C   UNL d   1     128.066 130.465 159.476  0.00  0.00     0.000 C 
ATOM     21  C   UNL d   1     128.022 130.157 160.977  0.00  0.00     0.000 C 
BRANCH  20  22
ATOM     22  C   UNL d   1     127.103 131.636 159.124  0.00  0.00     0.000 C 
BRANCH  22  23
ATOM     23  C   UNL d   1     127.669 133.064 159.149  0.00  0.00     0.000 C 
BRANCH  23  24
ATOM     24  C   UNL d   1     128.078 133.656 157.794  0.00  0.00     0.000 C 
BRANCH  24  25
ATOM     25  C   UNL d   1     129.055 132.800 156.968  0.00  0.00     0.000 C 
ATOM     26  C   UNL d   1     128.486 132.455 155.588  0.00  0.00     0.000 C 
ATOM     27  C   UNL d   1     130.390 133.532 156.808  0.00  0.00     0.000 C 
ENDBRANCH  24  25
ENDBRANCH  23  24
ENDBRANCH  22  23
ENDBRANCH  20  22
ENDBRANCH   5  20
BRANCH  19  28
ATOM     28  O   UNL d   1     132.218 121.780 153.310  0.00  0.00    -0.385 OA
ATOM     29  H   UNL d   1     131.922 121.898 152.388  0.00  0.00     0.210 HD
ENDBRANCH  19  28
TORSDOF 6
ENDMDL
MODEL 10
REMARK VINA RESULT:    -7.719     37.076     38.696
REMARK INTER + INTRA:         -10.939
REMARK INTER:                  -9.728
REMARK INTRA:                  -1.211
REMARK UNBOUND:                -0.737
REMARK  6 active torsions:
REMARK  status: ('A' for Active; 'I' for Inactive)
REMARK    1  A    between atoms: O_1  and  C_22 
REMARK    2  A    between atoms: C_6  and  C_13 
REMARK    3  A    between atoms: C_13  and  C_21 
REMARK    4  A    between atoms: C_21  and  C_24 
REMARK    5  A    between atoms: C_24  and  C_25 
REMARK    6  A    between atoms: C_25  and  C_26 
ROOT
ATOM      1  C   UNL d   1     140.512 139.880 125.159  0.00  0.00     0.000 C 
ATOM      2  C   UNL d   1     141.733 139.036 125.606  0.00  0.00     0.000 C 
ATOM      3  C   UNL d   1     142.987 139.889 125.803  0.00  0.00     0.005 C 
ATOM      4  C   UNL d   1     142.729 140.962 126.899  0.00  0.00     0.004 C 
ATOM      5  C   UNL d   1     139.458 138.762 124.877  0.00  0.00     0.000 C 
ATOM      6  C   UNL d   1     140.185 140.778 126.368  0.00  0.00     0.000 C 
ATOM      7  C   UNL d   1     143.966 141.937 127.045  0.00  0.00     0.015 C 
ATOM      8  C   UNL d   1     141.786 137.909 124.591  0.00  0.00     0.000 C 
ATOM      9  C   UNL d   1     141.364 141.694 126.739  0.00  0.00     0.000 C 
ATOM     10  C   UNL d   1     140.312 137.566 124.359  0.00  0.00     0.000 C 
ATOM     11  C   UNL d   1     144.209 139.035 126.173  0.00  0.00     0.025 C 
ATOM     12  C   UNL d   1     140.812 140.720 123.891  0.00  0.00     0.000 C 
ATOM     13  C   UNL d   1     145.284 141.151 127.004  0.00  0.00    -0.047 C 
ATOM     14  C   UNL d   1     143.859 142.662 128.419  0.00  0.00     0.006 C 
ATOM     15  C   UNL d   1     145.367 139.862 126.637  0.00  0.00    -0.035 C 
ATOM     16  C   UNL d   1     143.990 142.989 125.909  0.00  0.00     0.004 C 
ATOM     17  C   UNL d   1     146.534 141.904 127.418  0.00  0.00     0.051 C 
ATOM     18  C   UNL d   1     145.108 143.455 128.807  0.00  0.00     0.030 C 
ATOM     19  C   UNL d   1     146.360 142.583 128.775  0.00  0.00     0.115 C 
ENDROOT
BRANCH   5  20
ATOM     20  C   UNL d   1     138.240 139.052 123.934  0.00  0.00     0.000 C 
ATOM     21  C   UNL d   1     136.891 138.962 124.659  0.00  0.00     0.000 C 
BRANCH  20  22
ATOM     22  C   UNL d   1     138.283 138.078 122.721  0.00  0.00     0.000 C 
BRANCH  22  23
ATOM     23  C   UNL d   1     137.189 138.215 121.651  0.00  0.00     0.000 C 
BRANCH  23  24
ATOM     24  C   UNL d   1     137.406 139.305 120.595  0.00  0.00     0.000 C 
BRANCH  24  25
ATOM     25  C   UNL d   1     138.837 139.867 120.510  0.00  0.00     0.000 C 
ATOM     26  C   UNL d   1     139.461 139.635 119.131  0.00  0.00     0.000 C 
ATOM     27  C   UNL d   1     138.834 141.364 120.831  0.00  0.00     0.000 C 
ENDBRANCH  24  25
ENDBRANCH  23  24
ENDBRANCH  22  23
ENDBRANCH  20  22
ENDBRANCH   5  20
BRANCH  19  28
ATOM     28  O   UNL d   1     147.506 143.393 129.033  0.00  0.00    -0.385 OA
ATOM     29  H   UNL d   1     147.634 143.419 129.999  0.00  0.00     0.210 HD
ENDBRANCH  19  28
TORSDOF 6
ENDMDL
MODEL 11
REMARK VINA RESULT:    -7.697     36.469     40.701
REMARK INTER + INTRA:         -10.909
REMARK INTER:                  -9.383
REMARK INTRA:                  -1.527
REMARK UNBOUND:                -0.737
REMARK  6 active torsions:
REMARK  status: ('A' for Active; 'I' for Inactive)
REMARK    1  A    between atoms: O_1  and  C_22 
REMARK    2  A    between atoms: C_6  and  C_13 
REMARK    3  A    between atoms: C_13  and  C_21 
REMARK    4  A    between atoms: C_21  and  C_24 
REMARK    5  A    between atoms: C_24  and  C_25 
REMARK    6  A    between atoms: C_25  and  C_26 
ROOT
ATOM      1  C   UNL d   1     133.921 112.352 126.131  0.00  0.00     0.000 C 
ATOM      2  C   UNL d   1     134.354 111.636 124.827  0.00  0.00     0.000 C 
ATOM      3  C   UNL d   1     133.164 111.302 123.926  0.00  0.00     0.005 C 
ATOM      4  C   UNL d   1     132.424 112.609 123.523  0.00  0.00     0.004 C 
ATOM      5  C   UNL d   1     135.276 112.412 126.906  0.00  0.00     0.000 C 
ATOM      6  C   UNL d   1     133.385 113.723 125.673  0.00  0.00     0.000 C 
ATOM      7  C   UNL d   1     131.119 112.292 122.687  0.00  0.00     0.015 C 
ATOM      8  C   UNL d   1     135.226 110.493 125.313  0.00  0.00     0.000 C 
ATOM      9  C   UNL d   1     132.189 113.580 124.716  0.00  0.00     0.000 C 
ATOM     10  C   UNL d   1     136.014 111.111 126.471  0.00  0.00     0.000 C 
ATOM     11  C   UNL d   1     133.594 110.526 122.672  0.00  0.00     0.025 C 
ATOM     12  C   UNL d   1     132.848 111.552 126.911  0.00  0.00     0.000 C 
ATOM     13  C   UNL d   1     131.390 111.187 121.656  0.00  0.00    -0.047 C 
ATOM     14  C   UNL d   1     130.693 113.585 121.934  0.00  0.00     0.006 C 
ATOM     15  C   UNL d   1     132.502 110.433 121.653  0.00  0.00    -0.035 C 
ATOM     16  C   UNL d   1     129.963 111.827 123.607  0.00  0.00     0.004 C 
ATOM     17  C   UNL d   1     130.327 110.976 120.595  0.00  0.00     0.051 C 
ATOM     18  C   UNL d   1     129.589 113.371 120.897  0.00  0.00     0.030 C 
ATOM     19  C   UNL d   1     129.963 112.283 119.893  0.00  0.00     0.115 C 
ENDROOT
BRANCH   5  20
ATOM     20  C   UNL d   1     135.281 112.584 128.465  0.00  0.00     0.000 C 
ATOM     21  C   UNL d   1     134.704 113.931 128.917  0.00  0.00     0.000 C 
BRANCH  20  22
ATOM     22  C   UNL d   1     136.730 112.394 129.000  0.00  0.00     0.000 C 
BRANCH  22  23
ATOM     23  C   UNL d   1     136.967 111.307 130.059  0.00  0.00     0.000 C 
BRANCH  23  24
ATOM     24  C   UNL d   1     135.774 110.397 130.378  0.00  0.00     0.000 C 
BRANCH  24  25
ATOM     25  C   UNL d   1     135.855 108.974 129.798  0.00  0.00     0.000 C 
ATOM     26  C   UNL d   1     134.682 108.671 128.861  0.00  0.00     0.000 C 
ATOM     27  C   UNL d   1     137.177 108.784 129.051  0.00  0.00     0.000 C 
ENDBRANCH  24  25
ENDBRANCH  23  24
ENDBRANCH  22  23
ENDBRANCH  20  22
ENDBRANCH   5  20
BRANCH  19  28
ATOM     28  O   UNL d   1     128.859 112.044 119.022  0.00  0.00    -0.385 OA
ATOM     29  H   UNL d   1     128.344 111.307 119.398  0.00  0.00     0.210 HD
ENDBRANCH  19  28
TORSDOF 6
ENDMDL
MODEL 12
REMARK VINA RESULT:    -7.572      3.049      4.302
REMARK INTER + INTRA:         -10.744
REMARK INTER:                 -10.260
REMARK INTRA:                  -0.484
REMARK UNBOUND:                -0.737
REMARK  6 active torsions:
REMARK  status: ('A' for Active; 'I' for Inactive)
REMARK    1  A    between atoms: O_1  and  C_22 
REMARK    2  A    between atoms: C_6  and  C_13 
REMARK    3  A    between atoms: C_13  and  C_21 
REMARK    4  A    between atoms: C_21  and  C_24 
REMARK    5  A    between atoms: C_24  and  C_25 
REMARK    6  A    between atoms: C_25  and  C_26 
ROOT
ATOM      1  C   UNL d   1     128.961 128.237 159.046  0.00  0.00     0.000 C 
ATOM      2  C   UNL d   1     128.812 129.744 159.378  0.00  0.00     0.000 C 
ATOM      3  C   UNL d   1     127.533 130.042 160.163  0.00  0.00     0.005 C 
ATOM      4  C   UNL d   1     127.545 129.260 161.508  0.00  0.00     0.004 C 
ATOM      5  C   UNL d   1     130.223 128.254 158.126  0.00  0.00     0.000 C 
ATOM      6  C   UNL d   1     129.172 127.549 160.409  0.00  0.00     0.000 C 
ATOM      7  C   UNL d   1     126.185 129.453 162.291  0.00  0.00     0.015 C 
ATOM      8  C   UNL d   1     129.007 130.431 158.040  0.00  0.00     0.000 C 
ATOM      9  C   UNL d   1     127.982 127.774 161.357  0.00  0.00     0.000 C 
ATOM     10  C   UNL d   1     130.121 129.617 157.377  0.00  0.00     0.000 C 
ATOM     11  C   UNL d   1     127.356 131.544 160.422  0.00  0.00     0.025 C 
ATOM     12  C   UNL d   1     127.720 127.674 158.310  0.00  0.00     0.000 C 
ATOM     13  C   UNL d   1     125.726 130.917 162.231  0.00  0.00    -0.047 C 
ATOM     14  C   UNL d   1     126.417 129.062 163.780  0.00  0.00     0.006 C 
ATOM     15  C   UNL d   1     126.273 131.832 161.414  0.00  0.00    -0.035 C 
ATOM     16  C   UNL d   1     125.063 128.566 161.696  0.00  0.00     0.004 C 
ATOM     17  C   UNL d   1     124.602 131.312 163.169  0.00  0.00     0.051 C 
ATOM     18  C   UNL d   1     125.258 129.425 164.711  0.00  0.00     0.030 C 
ATOM     19  C   UNL d   1     124.899 130.906 164.611  0.00  0.00     0.115 C 
ENDROOT
BRANCH   5  20
ATOM     20  C   UNL d   1     130.485 127.069 157.133  0.00  0.00     0.000 C 
ATOM     21  C   UNL d   1     130.666 125.724 157.846  0.00  0.00     0.000 C 
BRANCH  20  22
ATOM     22  C   UNL d   1     131.725 127.399 156.251  0.00  0.00     0.000 C 
BRANCH  22  23
ATOM     23  C   UNL d   1     132.468 126.229 155.590  0.00  0.00     0.000 C 
BRANCH  23  24
ATOM     24  C   UNL d   1     131.613 125.266 154.756  0.00  0.00     0.000 C 
BRANCH  24  25
ATOM     25  C   UNL d   1     131.548 125.577 153.250  0.00  0.00     0.000 C 
ATOM     26  C   UNL d   1     130.240 126.278 152.867  0.00  0.00     0.000 C 
ATOM     27  C   UNL d   1     132.739 126.446 152.840  0.00  0.00     0.000 C 
ENDBRANCH  24  25
ENDBRANCH  23  24
ENDBRANCH  22  23
ENDBRANCH  20  22
ENDBRANCH   5  20
BRANCH  19  28
ATOM     28  O   UNL d   1     123.746 131.167 165.409  0.00  0.00    -0.385 OA
ATOM     29  H   UNL d   1     123.209 131.831 164.938  0.00  0.00     0.210 HD
ENDBRANCH  19  28
TORSDOF 6
ENDMDL
MODEL 13
REMARK VINA RESULT:    -7.547     56.570     60.861
REMARK INTER + INTRA:         -10.711
REMARK INTER:                  -9.588
REMARK INTRA:                  -1.123
REMARK UNBOUND:                -0.737
REMARK  6 active torsions:
REMARK  status: ('A' for Active; 'I' for Inactive)
REMARK    1  A    between atoms: O_1  and  C_22 
REMARK    2  A    between atoms: C_6  and  C_13 
REMARK    3  A    between atoms: C_13  and  C_21 
REMARK    4  A    between atoms: C_21  and  C_24 
REMARK    5  A    between atoms: C_24  and  C_25 
REMARK    6  A    between atoms: C_25  and  C_26 
ROOT
ATOM      1  C   UNL d   1     163.825 104.536 117.193  0.00  0.00     0.000 C 
ATOM      2  C   UNL d   1     162.657 103.873 117.968  0.00  0.00     0.000 C 
ATOM      3  C   UNL d   1     162.286 104.649 119.232  0.00  0.00     0.005 C 
ATOM      4  C   UNL d   1     161.842 106.092 118.855  0.00  0.00     0.004 C 
ATOM      5  C   UNL d   1     164.093 103.471 116.082  0.00  0.00     0.000 C 
ATOM      6  C   UNL d   1     163.251 105.870 116.675  0.00  0.00     0.000 C 
ATOM      7  C   UNL d   1     161.563 106.959 120.148  0.00  0.00     0.015 C 
ATOM      8  C   UNL d   1     163.096 102.428 118.118  0.00  0.00     0.000 C 
ATOM      9  C   UNL d   1     162.785 106.779 117.825  0.00  0.00     0.000 C 
ATOM     10  C   UNL d   1     163.765 102.115 116.778  0.00  0.00     0.000 C 
ATOM     11  C   UNL d   1     161.180 103.946 120.033  0.00  0.00     0.025 C 
ATOM     12  C   UNL d   1     165.070 104.761 118.087  0.00  0.00     0.000 C 
ATOM     13  C   UNL d   1     160.790 106.143 121.193  0.00  0.00    -0.047 C 
ATOM     14  C   UNL d   1     160.702 108.189 119.737  0.00  0.00     0.006 C 
ATOM     15  C   UNL d   1     160.612 104.814 121.111  0.00  0.00    -0.035 C 
ATOM     16  C   UNL d   1     162.884 107.449 120.792  0.00  0.00     0.004 C 
ATOM     17  C   UNL d   1     160.202 106.918 122.356  0.00  0.00     0.051 C 
ATOM     18  C   UNL d   1     160.150 108.990 120.917  0.00  0.00     0.030 C 
ATOM     19  C   UNL d   1     159.365 108.103 121.880  0.00  0.00     0.115 C 
ENDROOT
BRANCH   5  20
ATOM     20  C   UNL d   1     165.483 103.426 115.358  0.00  0.00     0.000 C 
ATOM     21  C   UNL d   1     165.661 104.559 114.340  0.00  0.00     0.000 C 
BRANCH  20  22
ATOM     22  C   UNL d   1     165.667 102.038 114.679  0.00  0.00     0.000 C 
BRANCH  22  23
ATOM     23  C   UNL d   1     165.232 101.893 113.213  0.00  0.00     0.000 C 
BRANCH  23  24
ATOM     24  C   UNL d   1     163.734 101.668 112.968  0.00  0.00     0.000 C 
BRANCH  24  25
ATOM     25  C   UNL d   1     163.308 100.199 112.790  0.00  0.00     0.000 C 
ATOM     26  C   UNL d   1     164.473  99.319 112.328  0.00  0.00     0.000 C 
ATOM     27  C   UNL d   1     162.737  99.654 114.101  0.00  0.00     0.000 C 
ENDBRANCH  24  25
ENDBRANCH  23  24
ENDBRANCH  22  23
ENDBRANCH  20  22
ENDBRANCH   5  20
BRANCH  19  28
ATOM     28  O   UNL d   1     158.970 108.872 123.015  0.00  0.00    -0.385 OA
ATOM     29  H   UNL d   1     159.782 109.209 123.437  0.00  0.00     0.210 HD
ENDBRANCH  19  28
TORSDOF 6
ENDMDL
MODEL 14
REMARK VINA RESULT:    -7.514     51.271     55.666
REMARK INTER + INTRA:         -10.666
REMARK INTER:                  -9.889
REMARK INTRA:                  -0.777
REMARK UNBOUND:                -0.737
REMARK  6 active torsions:
REMARK  status: ('A' for Active; 'I' for Inactive)
REMARK    1  A    between atoms: O_1  and  C_22 
REMARK    2  A    between atoms: C_6  and  C_13 
REMARK    3  A    between atoms: C_13  and  C_21 
REMARK    4  A    between atoms: C_21  and  C_24 
REMARK    5  A    between atoms: C_24  and  C_25 
REMARK    6  A    between atoms: C_25  and  C_26 
ROOT
ATOM      1  C   UNL d   1     155.095 101.167 123.123  0.00  0.00     0.000 C 
ATOM      2  C   UNL d   1     153.971 101.054 122.061  0.00  0.00     0.000 C 
ATOM      3  C   UNL d   1     154.523 100.786 120.659  0.00  0.00     0.005 C 
ATOM      4  C   UNL d   1     155.315  99.448 120.652  0.00  0.00     0.004 C 
ATOM      5  C   UNL d   1     154.277 101.599 124.382  0.00  0.00     0.000 C 
ATOM      6  C   UNL d   1     155.702  99.753 123.209  0.00  0.00     0.000 C 
ATOM      7  C   UNL d   1     155.999  99.198 119.247  0.00  0.00     0.015 C 
ATOM      8  C   UNL d   1     153.143 102.307 122.276  0.00  0.00     0.000 C 
ATOM      9  C   UNL d   1     156.283  99.294 121.861  0.00  0.00     0.000 C 
ATOM     10  C   UNL d   1     153.122 102.467 123.798  0.00  0.00     0.000 C 
ATOM     11  C   UNL d   1     153.410 100.751 119.602  0.00  0.00     0.025 C 
ATOM     12  C   UNL d   1     156.161 102.223 122.740  0.00  0.00     0.000 C 
ATOM     13  C   UNL d   1     155.038  99.554 118.104  0.00  0.00    -0.047 C 
ATOM     14  C   UNL d   1     156.364  97.688 119.141  0.00  0.00     0.006 C 
ATOM     15  C   UNL d   1     153.886 100.221 118.286  0.00  0.00    -0.035 C 
ATOM     16  C   UNL d   1     157.282 100.050 119.088  0.00  0.00     0.004 C 
ATOM     17  C   UNL d   1     155.441  99.099 116.715  0.00  0.00     0.051 C 
ATOM     18  C   UNL d   1     156.812  97.249 117.746  0.00  0.00     0.030 C 
ATOM     19  C   UNL d   1     155.778  97.610 116.684  0.00  0.00     0.115 C 
ENDROOT
BRANCH   5  20
ATOM     20  C   UNL d   1     154.995 102.322 125.573  0.00  0.00     0.000 C 
ATOM     21  C   UNL d   1     155.031 101.473 126.850  0.00  0.00     0.000 C 
BRANCH  20  22
ATOM     22  C   UNL d   1     154.305 103.691 125.839  0.00  0.00     0.000 C 
BRANCH  22  23
ATOM     23  C   UNL d   1     154.540 104.362 127.200  0.00  0.00     0.000 C 
BRANCH  23  24
ATOM     24  C   UNL d   1     153.683 105.597 127.506  0.00  0.00     0.000 C 
BRANCH  24  25
ATOM     25  C   UNL d   1     152.976 105.587 128.873  0.00  0.00     0.000 C 
ATOM     26  C   UNL d   1     153.012 104.202 129.525  0.00  0.00     0.000 C 
ATOM     27  C   UNL d   1     153.621 106.615 129.806  0.00  0.00     0.000 C 
ENDBRANCH  24  25
ENDBRANCH  23  24
ENDBRANCH  22  23
ENDBRANCH  20  22
ENDBRANCH   5  20
BRANCH  19  28
ATOM     28  O   UNL d   1     156.291  97.282 115.394  0.00  0.00    -0.385 OA
ATOM     29  H   UNL d   1     155.549  96.941 114.862  0.00  0.00     0.210 HD
ENDBRANCH  19  28
TORSDOF 6
ENDMDL
MODEL 15
REMARK VINA RESULT:    -7.493      4.411      6.310
REMARK INTER + INTRA:         -10.639
REMARK INTER:                  -9.753
REMARK INTRA:                  -0.886
REMARK UNBOUND:                -0.737
REMARK  6 active torsions:
REMARK  status: ('A' for Active; 'I' for Inactive)
REMARK    1  A    between atoms: O_1  and  C_22 
REMARK    2  A    between atoms: C_6  and  C_13 
REMARK    3  A    between atoms: C_13  and  C_21 
REMARK    4  A    between atoms: C_21  and  C_24 
REMARK    5  A    between atoms: C_24  and  C_25 
REMARK    6  A    between atoms: C_25  and  C_26 
ROOT
ATOM      1  C   UNL d   1     129.443 126.708 157.856  0.00  0.00     0.000 C 
ATOM      2  C   UNL d   1     129.765 128.207 158.081  0.00  0.00     0.000 C 
ATOM      3  C   UNL d   1     128.687 128.915 158.903  0.00  0.00     0.005 C 
ATOM      4  C   UNL d   1     128.564 128.243 160.301  0.00  0.00     0.004 C 
ATOM      5  C   UNL d   1     130.587 126.297 156.875  0.00  0.00     0.000 C 
ATOM      6  C   UNL d   1     129.538 126.066 159.254  0.00  0.00     0.000 C 
ATOM      7  C   UNL d   1     127.376 128.875 161.135  0.00  0.00     0.015 C 
ATOM      8  C   UNL d   1     130.058 128.728 156.687  0.00  0.00     0.000 C 
ATOM      9  C   UNL d   1     128.535 126.688 160.241  0.00  0.00     0.000 C 
ATOM     10  C   UNL d   1     130.837 127.585 156.032  0.00  0.00     0.000 C 
ATOM     11  C   UNL d   1     128.975 130.415 159.058  0.00  0.00     0.025 C 
ATOM     12  C   UNL d   1     128.043 126.497 157.227  0.00  0.00     0.000 C 
ATOM     13  C   UNL d   1     127.363 130.403 160.988  0.00  0.00    -0.047 C 
ATOM     14  C   UNL d   1     127.587 128.518 162.635  0.00  0.00     0.006 C 
ATOM     15  C   UNL d   1     128.096 131.066 160.079  0.00  0.00    -0.035 C 
ATOM     16  C   UNL d   1     126.006 128.328 160.664  0.00  0.00     0.004 C 
ATOM     17  C   UNL d   1     126.472 131.167 161.948  0.00  0.00     0.051 C 
ATOM     18  C   UNL d   1     126.654 129.261 163.593  0.00  0.00     0.030 C 
ATOM     19  C   UNL d   1     126.737 130.773 163.400  0.00  0.00     0.115 C 
ENDROOT
BRANCH   5  20
ATOM     20  C   UNL d   1     130.422 125.034 155.962  0.00  0.00     0.000 C 
ATOM     21  C   UNL d   1     131.092 123.784 156.547  0.00  0.00     0.000 C 
BRANCH  20  22
ATOM     22  C   UNL d   1     130.979 125.346 154.543  0.00  0.00     0.000 C 
BRANCH  22  23
ATOM     23  C   UNL d   1     131.862 124.285 153.869  0.00  0.00     0.000 C 
BRANCH  23  24
ATOM     24  C   UNL d   1     131.143 123.278 152.963  0.00  0.00     0.000 C 
BRANCH  24  25
ATOM     25  C   UNL d   1     131.725 121.853 152.967  0.00  0.00     0.000 C 
ATOM     26  C   UNL d   1     132.707 121.640 154.123  0.00  0.00     0.000 C 
ATOM     27  C   UNL d   1     130.596 120.823 153.051  0.00  0.00     0.000 C 
ENDBRANCH  24  25
ENDBRANCH  23  24
ENDBRANCH  22  23
ENDBRANCH  20  22
ENDBRANCH   5  20
BRANCH  19  28
ATOM     28  O   UNL d   1     125.769 131.409 164.232  0.00  0.00    -0.385 OA
ATOM     29  H   UNL d   1     124.989 130.826 164.272  0.00  0.00     0.210 HD
ENDBRANCH  19  28
TORSDOF 6
ENDMDL
MODEL 16
REMARK VINA RESULT:    -7.472     36.263     40.278
REMARK INTER + INTRA:         -10.612
REMARK INTER:                  -9.648
REMARK INTRA:                  -0.964
REMARK UNBOUND:                -0.737
REMARK  6 active torsions:
REMARK  status: ('A' for Active; 'I' for Inactive)
REMARK    1  A    between atoms: O_1  and  C_22 
REMARK    2  A    between atoms: C_6  and  C_13 
REMARK    3  A    between atoms: C_13  and  C_21 
REMARK    4  A    between atoms: C_21  and  C_24 
REMARK    5  A    between atoms: C_24  and  C_25 
REMARK    6  A    between atoms: C_25  and  C_26 
ROOT
ATOM      1  C   UNL d   1     147.265 153.021 132.137  0.00  0.00     0.000 C 
ATOM      2  C   UNL d   1     146.879 154.268 132.972  0.00  0.00     0.000 C 
ATOM      3  C   UNL d   1     145.390 154.603 132.861  0.00  0.00     0.005 C 
ATOM      4  C   UNL d   1     144.541 153.406 133.379  0.00  0.00     0.004 C 
ATOM      5  C   UNL d   1     148.818 153.020 132.296  0.00  0.00     0.000 C 
ATOM      6  C   UNL d   1     146.550 151.843 132.828  0.00  0.00     0.000 C 
ATOM      7  C   UNL d   1     142.995 153.672 133.169  0.00  0.00     0.015 C 
ATOM      8  C   UNL d   1     147.882 155.320 132.538  0.00  0.00     0.000 C 
ATOM      9  C   UNL d   1     145.023 152.027 132.843  0.00  0.00     0.000 C 
ATOM     10  C   UNL d   1     149.186 154.532 132.388  0.00  0.00     0.000 C 
ATOM     11  C   UNL d   1     145.031 155.882 133.631  0.00  0.00     0.025 C 
ATOM     12  C   UNL d   1     146.839 153.154 130.653  0.00  0.00     0.000 C 
ATOM     13  C   UNL d   1     142.637 155.117 133.544  0.00  0.00    -0.047 C 
ATOM     14  C   UNL d   1     142.202 152.703 134.094  0.00  0.00     0.006 C 
ATOM     15  C   UNL d   1     143.553 156.073 133.767  0.00  0.00    -0.035 C 
ATOM     16  C   UNL d   1     142.579 153.433 131.697  0.00  0.00     0.004 C 
ATOM     17  C   UNL d   1     141.159 155.435 133.672  0.00  0.00     0.051 C 
ATOM     18  C   UNL d   1     140.705 153.006 134.182  0.00  0.00     0.030 C 
ATOM     19  C   UNL d   1     140.447 154.452 134.597  0.00  0.00     0.115 C 
ENDROOT
BRANCH   5  20
ATOM     20  C   UNL d   1     149.714 152.271 131.249  0.00  0.00     0.000 C 
ATOM     21  C   UNL d   1     150.678 151.271 131.897  0.00  0.00     0.000 C 
BRANCH  20  22
ATOM     22  C   UNL d   1     150.491 153.315 130.395  0.00  0.00     0.000 C 
BRANCH  22  23
ATOM     23  C   UNL d   1     151.691 152.820 129.574  0.00  0.00     0.000 C 
BRANCH  23  24
ATOM     24  C   UNL d   1     151.366 151.954 128.351  0.00  0.00     0.000 C 
BRANCH  24  25
ATOM     25  C   UNL d   1     149.991 152.210 127.707  0.00  0.00     0.000 C 
ATOM     26  C   UNL d   1     150.020 153.412 126.758  0.00  0.00     0.000 C 
ATOM     27  C   UNL d   1     149.524 150.964 126.951  0.00  0.00     0.000 C 
ENDBRANCH  24  25
ENDBRANCH  23  24
ENDBRANCH  22  23
ENDBRANCH  20  22
ENDBRANCH   5  20
BRANCH  19  28
ATOM     28  O   UNL d   1     139.045 154.713 134.553  0.00  0.00    -0.385 OA
ATOM     29  H   UNL d   1     138.612 153.924 134.180  0.00  0.00     0.210 HD
ENDBRANCH  19  28
TORSDOF 6
ENDMDL
MODEL 17
REMARK VINA RESULT:    -7.417      4.890      9.957
REMARK INTER + INTRA:         -10.539
REMARK INTER:                 -10.143
REMARK INTRA:                  -0.396
REMARK UNBOUND:                -0.737
REMARK  6 active torsions:
REMARK  status: ('A' for Active; 'I' for Inactive)
REMARK    1  A    between atoms: O_1  and  C_22 
REMARK    2  A    between atoms: C_6  and  C_13 
REMARK    3  A    between atoms: C_13  and  C_21 
REMARK    4  A    between atoms: C_21  and  C_24 
REMARK    5  A    between atoms: C_24  and  C_25 
REMARK    6  A    between atoms: C_25  and  C_26 
ROOT
ATOM      1  C   UNL d   1     128.496 127.706 159.044  0.00  0.00     0.000 C 
ATOM      2  C   UNL d   1     129.978 128.093 158.807  0.00  0.00     0.000 C 
ATOM      3  C   UNL d   1     130.585 127.360 157.610  0.00  0.00     0.005 C 
ATOM      4  C   UNL d   1     129.792 127.712 156.318  0.00  0.00     0.004 C 
ATOM      5  C   UNL d   1     128.201 128.450 160.386  0.00  0.00     0.000 C 
ATOM      6  C   UNL d   1     127.739 128.264 157.824  0.00  0.00     0.000 C 
ATOM      7  C   UNL d   1     130.319 126.879 155.080  0.00  0.00     0.015 C 
ATOM      8  C   UNL d   1     130.626 127.902 160.166  0.00  0.00     0.000 C 
ATOM      9  C   UNL d   1     128.248 127.655 156.505  0.00  0.00     0.000 C 
ATOM     10  C   UNL d   1     129.563 128.407 161.144  0.00  0.00     0.000 C 
ATOM     11  C   UNL d   1     132.073 127.692 157.427  0.00  0.00     0.025 C 
ATOM     12  C   UNL d   1     128.305 126.174 159.182  0.00  0.00     0.000 C 
ATOM     13  C   UNL d   1     131.853 126.825 155.076  0.00  0.00    -0.047 C 
ATOM     14  C   UNL d   1     129.839 127.582 153.777  0.00  0.00     0.006 C 
ATOM     15  C   UNL d   1     132.611 127.212 156.115  0.00  0.00    -0.035 C 
ATOM     16  C   UNL d   1     129.780 125.427 155.110  0.00  0.00     0.004 C 
ATOM     17  C   UNL d   1     132.508 126.314 153.807  0.00  0.00     0.051 C 
ATOM     18  C   UNL d   1     130.472 127.030 152.499  0.00  0.00     0.030 C 
ATOM     19  C   UNL d   1     131.997 127.052 152.571  0.00  0.00     0.115 C 
ENDROOT
BRANCH   5  20
ATOM     20  C   UNL d   1     127.018 127.979 161.300  0.00  0.00     0.000 C 
ATOM     21  C   UNL d   1     125.683 128.640 160.934  0.00  0.00     0.000 C 
BRANCH  20  22
ATOM     22  C   UNL d   1     127.378 128.247 162.790  0.00  0.00     0.000 C 
BRANCH  22  23
ATOM     23  C   UNL d   1     126.740 129.466 163.474  0.00  0.00     0.000 C 
BRANCH  23  24
ATOM     24  C   UNL d   1     125.330 129.265 164.043  0.00  0.00     0.000 C 
BRANCH  24  25
ATOM     25  C   UNL d   1     124.913 130.261 165.140  0.00  0.00     0.000 C 
ATOM     26  C   UNL d   1     123.453 130.698 164.989  0.00  0.00     0.000 C 
ATOM     27  C   UNL d   1     125.126 129.640 166.523  0.00  0.00     0.000 C 
ENDBRANCH  24  25
ENDBRANCH  23  24
ENDBRANCH  22  23
ENDBRANCH  20  22
ENDBRANCH   5  20
BRANCH  19  28
ATOM     28  O   UNL d   1     132.534 126.425 151.408  0.00  0.00    -0.385 OA
ATOM     29  H   UNL d   1     132.422 127.045 150.664  0.00  0.00     0.210 HD
ENDBRANCH  19  28
TORSDOF 6
ENDMDL
MODEL 18
REMARK VINA RESULT:    -7.199     35.456     39.445
REMARK INTER + INTRA:         -10.251
REMARK INTER:                  -8.655
REMARK INTRA:                  -1.596
REMARK UNBOUND:                -0.737
REMARK  6 active torsions:
REMARK  status: ('A' for Active; 'I' for Inactive)
REMARK    1  A    between atoms: O_1  and  C_22 
REMARK    2  A    between atoms: C_6  and  C_13 
REMARK    3  A    between atoms: C_13  and  C_21 
REMARK    4  A    between atoms: C_21  and  C_24 
REMARK    5  A    between atoms: C_24  and  C_25 
REMARK    6  A    between atoms: C_25  and  C_26 
ROOT
ATOM      1  C   UNL d   1     135.284 110.574 127.892  0.00  0.00     0.000 C 
ATOM      2  C   UNL d   1     136.135 109.762 128.901  0.00  0.00     0.000 C 
ATOM      3  C   UNL d   1     136.027 108.254 128.669  0.00  0.00     0.005 C 
ATOM      4  C   UNL d   1     136.529 107.903 127.239  0.00  0.00     0.004 C 
ATOM      5  C   UNL d   1     135.445 112.021 128.458  0.00  0.00     0.000 C 
ATOM      6  C   UNL d   1     135.960 110.343 126.526  0.00  0.00     0.000 C 
ATOM      7  C   UNL d   1     136.321 106.367 126.922  0.00  0.00     0.015 C 
ATOM      8  C   UNL d   1     135.714 110.309 130.252  0.00  0.00     0.000 C 
ATOM      9  C   UNL d   1     135.976 108.854 126.138  0.00  0.00     0.000 C 
ATOM     10  C   UNL d   1     135.555 111.810 129.998  0.00  0.00     0.000 C 
ATOM     11  C   UNL d   1     136.812 107.454 129.719  0.00  0.00     0.025 C 
ATOM     12  C   UNL d   1     133.802 110.124 127.877  0.00  0.00     0.000 C 
ATOM     13  C   UNL d   1     136.714 105.506 128.131  0.00  0.00    -0.047 C 
ATOM     14  C   UNL d   1     137.234 105.987 125.720  0.00  0.00     0.006 C 
ATOM     15  C   UNL d   1     136.949 106.009 129.354  0.00  0.00    -0.035 C 
ATOM     16  C   UNL d   1     134.846 106.061 126.565  0.00  0.00     0.004 C 
ATOM     17  C   UNL d   1     136.844 104.015 127.886  0.00  0.00     0.051 C 
ATOM     18  C   UNL d   1     137.324 104.483 125.453  0.00  0.00     0.030 C 
ATOM     19  C   UNL d   1     137.757 103.715 126.699  0.00  0.00     0.115 C 
ENDROOT
BRANCH   5  20
ATOM     20  C   UNL d   1     134.389 113.124 128.101  0.00  0.00     0.000 C 
ATOM     21  C   UNL d   1     134.738 113.890 126.819  0.00  0.00     0.000 C 
BRANCH  20  22
ATOM     22  C   UNL d   1     134.237 114.101 129.304  0.00  0.00     0.000 C 
BRANCH  22  23
ATOM     23  C   UNL d   1     132.849 114.236 129.947  0.00  0.00     0.000 C 
BRANCH  23  24
ATOM     24  C   UNL d   1     132.041 112.941 130.097  0.00  0.00     0.000 C 
BRANCH  24  25
ATOM     25  C   UNL d   1     131.873 112.430 131.539  0.00  0.00     0.000 C 
ATOM     26  C   UNL d   1     132.365 110.988 131.695  0.00  0.00     0.000 C 
ATOM     27  C   UNL d   1     132.627 113.341 132.511  0.00  0.00     0.000 C 
ENDBRANCH  24  25
ENDBRANCH  23  24
ENDBRANCH  22  23
ENDBRANCH  20  22
ENDBRANCH   5  20
BRANCH  19  28
ATOM     28  O   UNL d   1     137.716 102.315 126.430  0.00  0.00    -0.385 OA
ATOM     29  H   UNL d   1     137.445 101.867 127.252  0.00  0.00     0.210 HD
ENDBRANCH  19  28
TORSDOF 6
ENDMDL
MODEL 19
REMARK VINA RESULT:    -7.121      5.026      9.787
REMARK INTER + INTRA:         -10.148
REMARK INTER:                 -10.242
REMARK INTRA:                   0.094
REMARK UNBOUND:                -0.737
REMARK  6 active torsions:
REMARK  status: ('A' for Active; 'I' for Inactive)
REMARK    1  A    between atoms: O_1  and  C_22 
REMARK    2  A    between atoms: C_6  and  C_13 
REMARK    3  A    between atoms: C_13  and  C_21 
REMARK    4  A    between atoms: C_21  and  C_24 
REMARK    5  A    between atoms: C_24  and  C_25 
REMARK    6  A    between atoms: C_25  and  C_26 
ROOT
ATOM      1  C   UNL d   1     128.344 127.593 158.700  0.00  0.00     0.000 C 
ATOM      2  C   UNL d   1     127.713 127.132 157.361  0.00  0.00     0.000 C 
ATOM      3  C   UNL d   1     128.769 126.714 156.336  0.00  0.00     0.005 C 
ATOM      4  C   UNL d   1     129.608 125.529 156.896  0.00  0.00     0.004 C 
ATOM      5  C   UNL d   1     127.083 128.106 159.467  0.00  0.00     0.000 C 
ATOM      6  C   UNL d   1     128.983 126.324 159.297  0.00  0.00     0.000 C 
ATOM      7  C   UNL d   1     130.785 125.148 155.911  0.00  0.00     0.015 C 
ATOM      8  C   UNL d   1     126.770 128.263 156.996  0.00  0.00     0.000 C 
ATOM      9  C   UNL d   1     130.060 125.734 158.371  0.00  0.00     0.000 C 
ATOM     10  C   UNL d   1     126.168 128.676 158.341  0.00  0.00     0.000 C 
ATOM     11  C   UNL d   1     128.140 126.330 154.989  0.00  0.00     0.025 C 
ATOM     12  C   UNL d   1     129.391 128.717 158.498  0.00  0.00     0.000 C 
ATOM     13  C   UNL d   1     130.298 125.154 154.455  0.00  0.00    -0.047 C 
ATOM     14  C   UNL d   1     131.279 123.716 156.268  0.00  0.00     0.006 C 
ATOM     15  C   UNL d   1     129.114 125.659 154.072  0.00  0.00    -0.035 C 
ATOM     16  C   UNL d   1     131.964 126.145 156.033  0.00  0.00     0.004 C 
ATOM     17  C   UNL d   1     131.226 124.533 153.429  0.00  0.00     0.051 C 
ATOM     18  C   UNL d   1     132.250 123.116 155.249  0.00  0.00     0.030 C 
ATOM     19  C   UNL d   1     131.665 123.129 153.839  0.00  0.00     0.115 C 
ENDROOT
BRANCH   5  20
ATOM     20  C   UNL d   1     127.244 129.123 160.649  0.00  0.00     0.000 C 
ATOM     21  C   UNL d   1     128.098 130.341 160.275  0.00  0.00     0.000 C 
BRANCH  20  22
ATOM     22  C   UNL d   1     127.840 128.388 161.885  0.00  0.00     0.000 C 
BRANCH  22  23
ATOM     23  C   UNL d   1     126.987 128.323 163.161  0.00  0.00     0.000 C 
BRANCH  23  24
ATOM     24  C   UNL d   1     125.482 128.556 162.984  0.00  0.00     0.000 C 
BRANCH  24  25
ATOM     25  C   UNL d   1     124.746 129.094 164.226  0.00  0.00     0.000 C 
ATOM     26  C   UNL d   1     124.734 128.074 165.368  0.00  0.00     0.000 C 
ATOM     27  C   UNL d   1     125.398 130.395 164.701  0.00  0.00     0.000 C 
ENDBRANCH  24  25
ENDBRANCH  23  24
ENDBRANCH  22  23
ENDBRANCH  20  22
ENDBRANCH   5  20
BRANCH  19  28
ATOM     28  O   UNL d   1     132.648 122.666 152.915  0.00  0.00    -0.385 OA
ATOM     29  H   UNL d   1     132.269 122.746 152.021  0.00  0.00     0.210 HD
ENDBRANCH  19  28
TORSDOF 6
ENDMDL
MODEL 20
REMARK VINA RESULT:    -7.094     31.830     35.313
REMARK INTER + INTRA:         -10.111
REMARK INTER:                  -8.775
REMARK INTRA:                  -1.336
REMARK UNBOUND:                -0.737
REMARK  6 active torsions:
REMARK  status: ('A' for Active; 'I' for Inactive)
REMARK    1  A    between atoms: O_1  and  C_22 
REMARK    2  A    between atoms: C_6  and  C_13 
REMARK    3  A    between atoms: C_13  and  C_21 
REMARK    4  A    between atoms: C_21  and  C_24 
REMARK    5  A    between atoms: C_24  and  C_25 
REMARK    6  A    between atoms: C_25  and  C_26 
ROOT
ATOM      1  C   UNL d   1     132.528 112.095 129.839  0.00  0.00     0.000 C 
ATOM      2  C   UNL d   1     130.995 112.243 129.660  0.00  0.00     0.000 C 
ATOM      3  C   UNL d   1     130.211 111.557 130.780  0.00  0.00     0.005 C 
ATOM      4  C   UNL d   1     130.589 112.189 132.151  0.00  0.00     0.004 C 
ATOM      5  C   UNL d   1     133.050 112.719 128.506  0.00  0.00     0.000 C 
ATOM      6  C   UNL d   1     132.861 112.913 131.102  0.00  0.00     0.000 C 
ATOM      7  C   UNL d   1     129.884 111.425 133.344  0.00  0.00     0.015 C 
ATOM      8  C   UNL d   1     130.752 111.786 128.233  0.00  0.00     0.000 C 
ATOM      9  C   UNL d   1     132.121 112.381 132.342  0.00  0.00     0.000 C 
ATOM     10  C   UNL d   1     131.948 112.353 127.466  0.00  0.00     0.000 C 
ATOM     11  C   UNL d   1     128.695 111.644 130.555  0.00  0.00     0.025 C 
ATOM     12  C   UNL d   1     132.961 110.614 129.989  0.00  0.00     0.000 C 
ATOM     13  C   UNL d   1     128.424 111.106 132.996  0.00  0.00    -0.047 C 
ATOM     14  C   UNL d   1     129.910 112.346 134.598  0.00  0.00     0.006 C 
ATOM     15  C   UNL d   1     127.911 111.232 131.761  0.00  0.00    -0.035 C 
ATOM     16  C   UNL d   1     130.610 110.096 133.666  0.00  0.00     0.004 C 
ATOM     17  C   UNL d   1     127.543 110.638 134.139  0.00  0.00     0.051 C 
ATOM     18  C   UNL d   1     129.054 111.843 135.762  0.00  0.00     0.030 C 
ATOM     19  C   UNL d   1     127.612 111.591 135.331  0.00  0.00     0.115 C 
ENDROOT
BRANCH   5  20
ATOM     20  C   UNL d   1     134.482 112.360 127.980  0.00  0.00     0.000 C 
ATOM     21  C   UNL d   1     135.594 113.123 128.709  0.00  0.00     0.000 C 
BRANCH  20  22
ATOM     22  C   UNL d   1     134.548 112.617 126.446  0.00  0.00     0.000 C 
BRANCH  22  23
ATOM     23  C   UNL d   1     135.229 111.556 125.569  0.00  0.00     0.000 C 
BRANCH  23  24
ATOM     24  C   UNL d   1     135.472 110.189 126.221  0.00  0.00     0.000 C 
BRANCH  24  25
ATOM     25  C   UNL d   1     136.934 109.887 126.596  0.00  0.00     0.000 C 
ATOM     26  C   UNL d   1     137.861 111.063 126.274  0.00  0.00     0.000 C 
ATOM     27  C   UNL d   1     137.035 109.540 128.083  0.00  0.00     0.000 C 
ENDBRANCH  24  25
ENDBRANCH  23  24
ENDBRANCH  22  23
ENDBRANCH  20  22
ENDBRANCH   5  20
BRANCH  19  28
ATOM     28  O   UNL d   1     126.887 111.018 136.419  0.00  0.00    -0.385 OA
ATOM     29  H   UNL d   1     126.831 110.058 136.259  0.00  0.00     0.210 HD
ENDBRANCH  19  28
TORSDOF 6
ENDMDL
