MODEL 1
REMARK VINA RESULT:    -9.174      0.000      0.000
REMARK INTER + INTRA:         -12.847
REMARK INTER:                 -12.124
REMARK INTRA:                  -0.723
REMARK UNBOUND:                -0.723
REMARK  6 active torsions:
REMARK  status: ('A' for Active; 'I' for Inactive)
REMARK    1  A    between atoms: O_1  and  C_22 
REMARK    2  A    between atoms: C_6  and  C_13 
REMARK    3  A    between atoms: C_13  and  C_21 
REMARK    4  A    between atoms: C_21  and  C_24 
REMARK    5  A    between atoms: C_24  and  C_25 
REMARK    6  A    between atoms: C_25  and  C_26 
ROOT
ATOM      1  C   UNL d   1     128.154 130.485 158.528  0.00  0.00     0.000 C 
ATOM      2  C   UNL d   1     127.714 131.705 159.376  0.00  0.00     0.000 C 
ATOM      3  C   UNL d   1     126.784 131.308 160.524  0.00  0.00     0.005 C 
ATOM      4  C   UNL d   1     127.511 130.311 161.472  0.00  0.00     0.004 C 
ATOM      5  C   UNL d   1     128.929 131.187 157.368  0.00  0.00     0.000 C 
ATOM      6  C   UNL d   1     129.037 129.643 159.470  0.00  0.00     0.000 C 
ATOM      7  C   UNL d   1     126.538 129.789 162.605  0.00  0.00     0.015 C 
ATOM      8  C   UNL d   1     127.199 132.695 158.348  0.00  0.00     0.000 C 
ATOM      9  C   UNL d   1     128.266 129.179 160.717  0.00  0.00     0.000 C 
ATOM     10  C   UNL d   1     128.175 132.539 157.179  0.00  0.00     0.000 C 
ATOM     11  C   UNL d   1     126.293 132.530 161.313  0.00  0.00     0.025 C 
ATOM     12  C   UNL d   1     126.946 129.670 158.001  0.00  0.00     0.000 C 
ATOM     13  C   UNL d   1     125.692 130.940 163.167  0.00  0.00    -0.047 C 
ATOM     14  C   UNL d   1     127.401 129.195 163.756  0.00  0.00     0.006 C 
ATOM     15  C   UNL d   1     125.616 132.153 162.593  0.00  0.00    -0.035 C 
ATOM     16  C   UNL d   1     125.580 128.699 162.064  0.00  0.00     0.004 C 
ATOM     17  C   UNL d   1     124.928 130.656 164.445  0.00  0.00     0.051 C 
ATOM     18  C   UNL d   1     126.613 128.870 165.026  0.00  0.00     0.030 C 
ATOM     19  C   UNL d   1     125.836 130.083 165.531  0.00  0.00     0.115 C 
ENDROOT
BRANCH   5  20
ATOM     20  C   UNL d   1     129.136 130.447 156.001  0.00  0.00     0.000 C 
ATOM     21  C   UNL d   1     130.589 130.491 155.514  0.00  0.00     0.000 C 
BRANCH  20  22
ATOM     22  C   UNL d   1     128.176 131.053 154.936  0.00  0.00     0.000 C 
BRANCH  22  23
ATOM     23  C   UNL d   1     128.803 131.782 153.737  0.00  0.00     0.000 C 
BRANCH  23  24
ATOM     24  C   UNL d   1     128.641 133.306 153.709  0.00  0.00     0.000 C 
BRANCH  24  25
ATOM     25  C   UNL d   1     128.596 133.940 152.307  0.00  0.00     0.000 C 
ATOM     26  C   UNL d   1     127.443 134.938 152.167  0.00  0.00     0.000 C 
ATOM     27  C   UNL d   1     129.925 134.637 152.002  0.00  0.00     0.000 C 
ENDBRANCH  24  25
ENDBRANCH  23  24
ENDBRANCH  22  23
ENDBRANCH  20  22
ENDBRANCH   5  20
BRANCH  19  28
ATOM     28  O   UNL d   1     125.033 129.698 166.646  0.00  0.00    -0.385 OA
ATOM     29  H   UNL d   1     125.415 128.881 167.014  0.00  0.00     0.210 HD
ENDBRANCH  19  28
TORSDOF 6
ENDMDL
MODEL 2
REMARK VINA RESULT:    -8.929      5.415      8.451
REMARK INTER + INTRA:         -12.523
REMARK INTER:                 -11.409
REMARK INTRA:                  -1.114
REMARK UNBOUND:                -0.723
REMARK  6 active torsions:
REMARK  status: ('A' for Active; 'I' for Inactive)
REMARK    1  A    between atoms: O_1  and  C_22 
REMARK    2  A    between atoms: C_6  and  C_13 
REMARK    3  A    between atoms: C_13  and  C_21 
REMARK    4  A    between atoms: C_21  and  C_24 
REMARK    5  A    between atoms: C_24  and  C_25 
REMARK    6  A    between atoms: C_25  and  C_26 
ROOT
ATOM      1  C   UNL d   1     130.420 127.031 154.431  0.00  0.00     0.000 C 
ATOM      2  C   UNL d   1     131.332 127.697 155.494  0.00  0.00     0.000 C 
ATOM      3  C   UNL d   1     131.212 129.221 155.488  0.00  0.00     0.005 C 
ATOM      4  C   UNL d   1     129.745 129.637 155.797  0.00  0.00     0.004 C 
ATOM      5  C   UNL d   1     130.865 125.538 154.545  0.00  0.00     0.000 C 
ATOM      6  C   UNL d   1     128.982 127.309 154.911  0.00  0.00     0.000 C 
ATOM      7  C   UNL d   1     129.560 131.204 155.682  0.00  0.00     0.015 C 
ATOM      8  C   UNL d   1     132.696 127.085 155.235  0.00  0.00     0.000 C 
ATOM      9  C   UNL d   1     128.689 128.816 155.001  0.00  0.00     0.000 C 
ATOM     10  C   UNL d   1     132.379 125.625 154.906  0.00  0.00     0.000 C 
ATOM     11  C   UNL d   1     132.173 129.876 156.490  0.00  0.00     0.025 C 
ATOM     12  C   UNL d   1     130.666 127.597 153.010  0.00  0.00     0.000 C 
ATOM     13  C   UNL d   1     130.743 131.939 156.329  0.00  0.00    -0.047 C 
ATOM     14  C   UNL d   1     128.255 131.599 156.433  0.00  0.00     0.006 C 
ATOM     15  C   UNL d   1     131.880 131.329 156.700  0.00  0.00    -0.035 C 
ATOM     16  C   UNL d   1     129.458 131.650 154.203  0.00  0.00     0.004 C 
ATOM     17  C   UNL d   1     130.571 133.429 156.553  0.00  0.00     0.051 C 
ATOM     18  C   UNL d   1     128.069 133.106 156.616  0.00  0.00     0.030 C 
ATOM     19  C   UNL d   1     129.277 133.743 157.300  0.00  0.00     0.115 C 
ENDROOT
BRANCH   5  20
ATOM     20  C   UNL d   1     130.612 124.551 153.354  0.00  0.00     0.000 C 
ATOM     21  C   UNL d   1     129.503 123.533 153.648  0.00  0.00     0.000 C 
BRANCH  20  22
ATOM     22  C   UNL d   1     131.942 123.830 152.989  0.00  0.00     0.000 C 
BRANCH  22  23
ATOM     23  C   UNL d   1     132.526 124.066 151.588  0.00  0.00     0.000 C 
BRANCH  23  24
ATOM     24  C   UNL d   1     133.100 125.462 151.318  0.00  0.00     0.000 C 
BRANCH  24  25
ATOM     25  C   UNL d   1     134.474 125.488 150.624  0.00  0.00     0.000 C 
ATOM     26  C   UNL d   1     134.859 124.114 150.069  0.00  0.00     0.000 C 
ATOM     27  C   UNL d   1     134.473 126.521 149.494  0.00  0.00     0.000 C 
ENDBRANCH  24  25
ENDBRANCH  23  24
ENDBRANCH  22  23
ENDBRANCH  20  22
ENDBRANCH   5  20
BRANCH  19  28
ATOM     28  O   UNL d   1     129.103 135.158 157.343  0.00  0.00    -0.385 OA
ATOM     29  H   UNL d   1     129.345 135.454 158.240  0.00  0.00     0.210 HD
ENDBRANCH  19  28
TORSDOF 6
ENDMDL
MODEL 3
REMARK VINA RESULT:    -8.898      2.498      3.005
REMARK INTER + INTRA:         -12.482
REMARK INTER:                 -10.880
REMARK INTRA:                  -1.603
REMARK UNBOUND:                -0.723
REMARK  6 active torsions:
REMARK  status: ('A' for Active; 'I' for Inactive)
REMARK    1  A    between atoms: O_1  and  C_22 
REMARK    2  A    between atoms: C_6  and  C_13 
REMARK    3  A    between atoms: C_13  and  C_21 
REMARK    4  A    between atoms: C_21  and  C_24 
REMARK    5  A    between atoms: C_24  and  C_25 
REMARK    6  A    between atoms: C_25  and  C_26 
ROOT
ATOM      1  C   UNL d   1     128.820 129.106 159.156  0.00  0.00     0.000 C 
ATOM      2  C   UNL d   1     128.391 130.524 159.612  0.00  0.00     0.000 C 
ATOM      3  C   UNL d   1     127.202 130.490 160.573  0.00  0.00     0.005 C 
ATOM      4  C   UNL d   1     127.577 129.679 161.846  0.00  0.00     0.004 C 
ATOM      5  C   UNL d   1     129.904 129.448 158.085  0.00  0.00     0.000 C 
ATOM      6  C   UNL d   1     129.369 128.429 160.428  0.00  0.00     0.000 C 
ATOM      7  C   UNL d   1     126.331 129.524 162.810  0.00  0.00     0.015 C 
ATOM      8  C   UNL d   1     128.238 131.292 158.311  0.00  0.00     0.000 C 
ATOM      9  C   UNL d   1     128.304 128.339 161.535  0.00  0.00     0.000 C 
ATOM     10  C   UNL d   1     129.400 130.781 157.455  0.00  0.00     0.000 C 
ATOM     11  C   UNL d   1     126.737 131.901 160.960  0.00  0.00     0.025 C 
ATOM     12  C   UNL d   1     127.642 128.304 158.547  0.00  0.00     0.000 C 
ATOM     13  C   UNL d   1     125.558 130.845 162.914  0.00  0.00    -0.047 C 
ATOM     14  C   UNL d   1     126.852 129.136 164.225  0.00  0.00     0.006 C 
ATOM     15  C   UNL d   1     125.768 131.893 162.101  0.00  0.00    -0.035 C 
ATOM     16  C   UNL d   1     125.361 128.429 162.302  0.00  0.00     0.004 C 
ATOM     17  C   UNL d   1     124.518 130.935 164.015  0.00  0.00     0.051 C 
ATOM     18  C   UNL d   1     125.786 129.187 165.320  0.00  0.00     0.030 C 
ATOM     19  C   UNL d   1     125.099 130.549 165.373  0.00  0.00     0.115 C 
ENDROOT
BRANCH   5  20
ATOM     20  C   UNL d   1     130.278 128.396 156.984  0.00  0.00     0.000 C 
ATOM     21  C   UNL d   1     131.600 127.674 157.275  0.00  0.00     0.000 C 
BRANCH  20  22
ATOM     22  C   UNL d   1     130.324 129.096 155.595  0.00  0.00     0.000 C 
BRANCH  22  23
ATOM     23  C   UNL d   1     129.415 128.548 154.485  0.00  0.00     0.000 C 
BRANCH  23  24
ATOM     24  C   UNL d   1     128.377 127.502 154.911  0.00  0.00     0.000 C 
BRANCH  24  25
ATOM     25  C   UNL d   1     126.908 127.954 154.820  0.00  0.00     0.000 C 
ATOM     26  C   UNL d   1     126.752 129.451 155.106  0.00  0.00     0.000 C 
ATOM     27  C   UNL d   1     126.344 127.631 153.434  0.00  0.00     0.000 C 
ENDBRANCH  24  25
ENDBRANCH  23  24
ENDBRANCH  22  23
ENDBRANCH  20  22
ENDBRANCH   5  20
BRANCH  19  28
ATOM     28  O   UNL d   1     124.041 130.508 166.330  0.00  0.00    -0.385 OA
ATOM     29  H   UNL d   1     123.332 129.953 165.957  0.00  0.00     0.210 HD
ENDBRANCH  19  28
TORSDOF 6
ENDMDL
MODEL 4
REMARK VINA RESULT:    -8.701     13.878     15.825
REMARK INTER + INTRA:         -12.222
REMARK INTER:                 -10.495
REMARK INTRA:                  -1.726
REMARK UNBOUND:                -0.723
REMARK  6 active torsions:
REMARK  status: ('A' for Active; 'I' for Inactive)
REMARK    1  A    between atoms: O_1  and  C_22 
REMARK    2  A    between atoms: C_6  and  C_13 
REMARK    3  A    between atoms: C_13  and  C_21 
REMARK    4  A    between atoms: C_21  and  C_24 
REMARK    5  A    between atoms: C_24  and  C_25 
REMARK    6  A    between atoms: C_25  and  C_26 
ROOT
ATOM      1  C   UNL d   1     126.693 125.610 171.781  0.00  0.00     0.000 C 
ATOM      2  C   UNL d   1     128.066 125.940 171.142  0.00  0.00     0.000 C 
ATOM      3  C   UNL d   1     129.042 124.765 171.226  0.00  0.00     0.005 C 
ATOM      4  C   UNL d   1     128.455 123.537 170.474  0.00  0.00     0.004 C 
ATOM      5  C   UNL d   1     125.984 126.999 171.708  0.00  0.00     0.000 C 
ATOM      6  C   UNL d   1     126.079 124.530 170.869  0.00  0.00     0.000 C 
ATOM      7  C   UNL d   1     129.385 122.268 170.640  0.00  0.00     0.015 C 
ATOM      8  C   UNL d   1     128.465 127.249 171.797  0.00  0.00     0.000 C 
ATOM      9  C   UNL d   1     126.957 123.268 170.802  0.00  0.00     0.000 C 
ATOM     10  C   UNL d   1     127.146 128.022 171.886  0.00  0.00     0.000 C 
ATOM     11  C   UNL d   1     130.423 125.125 170.658  0.00  0.00     0.025 C 
ATOM     12  C   UNL d   1     126.830 125.110 173.242  0.00  0.00     0.000 C 
ATOM     13  C   UNL d   1     130.863 122.655 170.488  0.00  0.00    -0.047 C 
ATOM     14  C   UNL d   1     129.020 121.243 169.527  0.00  0.00     0.006 C 
ATOM     15  C   UNL d   1     131.298 123.926 170.475  0.00  0.00    -0.035 C 
ATOM     16  C   UNL d   1     129.194 121.609 172.029  0.00  0.00     0.004 C 
ATOM     17  C   UNL d   1     131.849 121.513 170.335  0.00  0.00     0.051 C 
ATOM     18  C   UNL d   1     129.996 120.071 169.409  0.00  0.00     0.030 C 
ATOM     19  C   UNL d   1     131.433 120.553 169.223  0.00  0.00     0.115 C 
ENDROOT
BRANCH   5  20
ATOM     20  C   UNL d   1     124.784 127.319 172.665  0.00  0.00     0.000 C 
ATOM     21  C   UNL d   1     123.424 126.948 172.060  0.00  0.00     0.000 C 
BRANCH  20  22
ATOM     22  C   UNL d   1     124.822 128.825 173.057  0.00  0.00     0.000 C 
BRANCH  22  23
ATOM     23  C   UNL d   1     125.005 129.176 174.541  0.00  0.00     0.000 C 
BRANCH  23  24
ATOM     24  C   UNL d   1     125.848 128.200 175.371  0.00  0.00     0.000 C 
BRANCH  24  25
ATOM     25  C   UNL d   1     127.260 128.692 175.738  0.00  0.00     0.000 C 
ATOM     26  C   UNL d   1     128.336 127.667 175.368  0.00  0.00     0.000 C 
ATOM     27  C   UNL d   1     127.551 130.023 175.039  0.00  0.00     0.000 C 
ENDBRANCH  24  25
ENDBRANCH  23  24
ENDBRANCH  22  23
ENDBRANCH  20  22
ENDBRANCH   5  20
BRANCH  19  28
ATOM     28  O   UNL d   1     132.312 119.430 169.233  0.00  0.00    -0.385 OA
ATOM     29  H   UNL d   1     132.267 119.015 168.352  0.00  0.00     0.210 HD
ENDBRANCH  19  28
TORSDOF 6
ENDMDL
MODEL 5
REMARK VINA RESULT:    -8.339      4.349      7.100
REMARK INTER + INTRA:         -11.743
REMARK INTER:                 -10.257
REMARK INTRA:                  -1.486
REMARK UNBOUND:                -0.723
REMARK  6 active torsions:
REMARK  status: ('A' for Active; 'I' for Inactive)
REMARK    1  A    between atoms: O_1  and  C_22 
REMARK    2  A    between atoms: C_6  and  C_13 
REMARK    3  A    between atoms: C_13  and  C_21 
REMARK    4  A    between atoms: C_21  and  C_24 
REMARK    5  A    between atoms: C_24  and  C_25 
REMARK    6  A    between atoms: C_25  and  C_26 
ROOT
ATOM      1  C   UNL d   1     130.277 127.435 156.688  0.00  0.00     0.000 C 
ATOM      2  C   UNL d   1     131.144 128.701 156.468  0.00  0.00     0.000 C 
ATOM      3  C   UNL d   1     130.303 129.977 156.409  0.00  0.00     0.005 C 
ATOM      4  C   UNL d   1     129.530 130.161 157.747  0.00  0.00     0.004 C 
ATOM      5  C   UNL d   1     131.347 126.306 156.538  0.00  0.00     0.000 C 
ATOM      6  C   UNL d   1     129.705 127.588 158.111  0.00  0.00     0.000 C 
ATOM      7  C   UNL d   1     128.559 131.408 157.677  0.00  0.00     0.015 C 
ATOM      8  C   UNL d   1     131.998 128.350 155.263  0.00  0.00     0.000 C 
ATOM      9  C   UNL d   1     128.847 128.857 158.251  0.00  0.00     0.000 C 
ATOM     10  C   UNL d   1     132.347 126.877 155.487  0.00  0.00     0.000 C 
ATOM     11  C   UNL d   1     131.161 131.216 156.116  0.00  0.00     0.025 C 
ATOM     12  C   UNL d   1     129.151 127.304 155.632  0.00  0.00     0.000 C 
ATOM     13  C   UNL d   1     129.250 132.597 156.993  0.00  0.00    -0.047 C 
ATOM     14  C   UNL d   1     128.182 131.818 159.130  0.00  0.00     0.006 C 
ATOM     15  C   UNL d   1     130.413 132.495 156.328  0.00  0.00    -0.035 C 
ATOM     16  C   UNL d   1     127.270 131.073 156.886  0.00  0.00     0.004 C 
ATOM     17  C   UNL d   1     128.557 133.941 157.109  0.00  0.00     0.051 C 
ATOM     18  C   UNL d   1     127.444 133.154 159.233  0.00  0.00     0.030 C 
ATOM     19  C   UNL d   1     128.224 134.281 158.561  0.00  0.00     0.115 C 
ENDROOT
BRANCH   5  20
ATOM     20  C   UNL d   1     130.902 124.847 156.177  0.00  0.00     0.000 C 
ATOM     21  C   UNL d   1     130.689 123.966 157.414  0.00  0.00     0.000 C 
BRANCH  20  22
ATOM     22  C   UNL d   1     131.949 124.210 155.218  0.00  0.00     0.000 C 
BRANCH  22  23
ATOM     23  C   UNL d   1     131.508 123.895 153.780  0.00  0.00     0.000 C 
BRANCH  23  24
ATOM     24  C   UNL d   1     130.038 123.502 153.592  0.00  0.00     0.000 C 
BRANCH  24  25
ATOM     25  C   UNL d   1     129.181 124.506 152.800  0.00  0.00     0.000 C 
ATOM     26  C   UNL d   1     127.809 124.721 153.445  0.00  0.00     0.000 C 
ATOM     27  C   UNL d   1     129.914 125.846 152.685  0.00  0.00     0.000 C 
ENDBRANCH  24  25
ENDBRANCH  23  24
ENDBRANCH  22  23
ENDBRANCH  20  22
ENDBRANCH   5  20
BRANCH  19  28
ATOM     28  O   UNL d   1     127.444 135.475 158.585  0.00  0.00    -0.385 OA
ATOM     29  H   UNL d   1     126.618 135.294 158.101  0.00  0.00     0.210 HD
ENDBRANCH  19  28
TORSDOF 6
ENDMDL
MODEL 6
REMARK VINA RESULT:    -8.084     13.382     15.968
REMARK INTER + INTRA:         -11.406
REMARK INTER:                  -9.749
REMARK INTRA:                  -1.658
REMARK UNBOUND:                -0.723
REMARK  6 active torsions:
REMARK  status: ('A' for Active; 'I' for Inactive)
REMARK    1  A    between atoms: O_1  and  C_22 
REMARK    2  A    between atoms: C_6  and  C_13 
REMARK    3  A    between atoms: C_13  and  C_21 
REMARK    4  A    between atoms: C_21  and  C_24 
REMARK    5  A    between atoms: C_24  and  C_25 
REMARK    6  A    between atoms: C_25  and  C_26 
ROOT
ATOM      1  C   UNL d   1     128.572 125.905 172.673  0.00  0.00     0.000 C 
ATOM      2  C   UNL d   1     128.328 124.468 173.202  0.00  0.00     0.000 C 
ATOM      3  C   UNL d   1     128.684 123.400 172.167  0.00  0.00     0.005 C 
ATOM      4  C   UNL d   1     130.189 123.514 171.788  0.00  0.00     0.004 C 
ATOM      5  C   UNL d   1     127.979 126.760 173.837  0.00  0.00     0.000 C 
ATOM      6  C   UNL d   1     130.101 126.015 172.514  0.00  0.00     0.000 C 
ATOM      7  C   UNL d   1     130.565 122.501 170.633  0.00  0.00     0.015 C 
ATOM      8  C   UNL d   1     126.904 124.512 173.724  0.00  0.00     0.000 C 
ATOM      9  C   UNL d   1     130.651 124.976 171.520  0.00  0.00     0.000 C 
ATOM     10  C   UNL d   1     126.803 125.892 174.378  0.00  0.00     0.000 C 
ATOM     11  C   UNL d   1     128.369 121.985 172.671  0.00  0.00     0.025 C 
ATOM     12  C   UNL d   1     127.839 126.169 171.334  0.00  0.00     0.000 C 
ATOM     13  C   UNL d   1     129.912 121.133 170.877  0.00  0.00    -0.047 C 
ATOM     14  C   UNL d   1     132.111 122.323 170.621  0.00  0.00     0.006 C 
ATOM     15  C   UNL d   1     128.960 120.921 171.800  0.00  0.00    -0.035 C 
ATOM     16  C   UNL d   1     130.096 123.025 169.252  0.00  0.00     0.004 C 
ATOM     17  C   UNL d   1     130.408 119.985 170.019  0.00  0.00     0.051 C 
ATOM     18  C   UNL d   1     132.604 121.191 169.718  0.00  0.00     0.030 C 
ATOM     19  C   UNL d   1     131.930 119.865 170.060  0.00  0.00     0.115 C 
ENDROOT
BRANCH   5  20
ATOM     20  C   UNL d   1     127.530 128.239 173.574  0.00  0.00     0.000 C 
ATOM     21  C   UNL d   1     128.402 129.266 174.307  0.00  0.00     0.000 C 
BRANCH  20  22
ATOM     22  C   UNL d   1     126.033 128.403 173.969  0.00  0.00     0.000 C 
BRANCH  22  23
ATOM     23  C   UNL d   1     125.087 129.049 172.947  0.00  0.00     0.000 C 
BRANCH  23  24
ATOM     24  C   UNL d   1     123.905 128.192 172.479  0.00  0.00     0.000 C 
BRANCH  24  25
ATOM     25  C   UNL d   1     124.278 126.832 171.863  0.00  0.00     0.000 C 
ATOM     26  C   UNL d   1     123.426 125.694 172.433  0.00  0.00     0.000 C 
ATOM     27  C   UNL d   1     124.122 126.883 170.341  0.00  0.00     0.000 C 
ENDBRANCH  24  25
ENDBRANCH  23  24
ENDBRANCH  22  23
ENDBRANCH  20  22
ENDBRANCH   5  20
BRANCH  19  28
ATOM     28  O   UNL d   1     132.337 118.871 169.121  0.00  0.00    -0.385 OA
ATOM     29  H   UNL d   1     132.735 118.138 169.625  0.00  0.00     0.210 HD
ENDBRANCH  19  28
TORSDOF 6
ENDMDL
MODEL 7
REMARK VINA RESULT:    -8.000      6.648      9.854
REMARK INTER + INTRA:         -11.296
REMARK INTER:                 -10.596
REMARK INTRA:                  -0.700
REMARK UNBOUND:                -0.723
REMARK  6 active torsions:
REMARK  status: ('A' for Active; 'I' for Inactive)
REMARK    1  A    between atoms: O_1  and  C_22 
REMARK    2  A    between atoms: C_6  and  C_13 
REMARK    3  A    between atoms: C_13  and  C_21 
REMARK    4  A    between atoms: C_21  and  C_24 
REMARK    5  A    between atoms: C_24  and  C_25 
REMARK    6  A    between atoms: C_25  and  C_26 
ROOT
ATOM      1  C   UNL d   1     130.546 126.007 153.926  0.00  0.00     0.000 C 
ATOM      2  C   UNL d   1     129.222 126.722 153.556  0.00  0.00     0.000 C 
ATOM      3  C   UNL d   1     128.899 127.875 154.509  0.00  0.00     0.005 C 
ATOM      4  C   UNL d   1     130.038 128.934 154.460  0.00  0.00     0.004 C 
ATOM      5  C   UNL d   1     130.532 124.809 152.924  0.00  0.00     0.000 C 
ATOM      6  C   UNL d   1     131.649 127.050 153.660  0.00  0.00     0.000 C 
ATOM      7  C   UNL d   1     129.794 130.082 155.521  0.00  0.00     0.015 C 
ATOM      8  C   UNL d   1     128.219 125.590 153.438  0.00  0.00     0.000 C 
ATOM      9  C   UNL d   1     131.464 128.313 154.519  0.00  0.00     0.000 C 
ATOM     10  C   UNL d   1     129.019 124.471 152.767  0.00  0.00     0.000 C 
ATOM     11  C   UNL d   1     127.550 128.530 154.182  0.00  0.00     0.025 C 
ATOM     12  C   UNL d   1     130.561 125.525 155.399  0.00  0.00     0.000 C 
ATOM     13  C   UNL d   1     128.319 130.507 155.532  0.00  0.00    -0.047 C 
ATOM     14  C   UNL d   1     130.665 131.309 155.123  0.00  0.00     0.006 C 
ATOM     15  C   UNL d   1     127.345 129.819 154.913  0.00  0.00    -0.035 C 
ATOM     16  C   UNL d   1     130.178 129.620 156.948  0.00  0.00     0.004 C 
ATOM     17  C   UNL d   1     127.988 131.784 156.280  0.00  0.00     0.051 C 
ATOM     18  C   UNL d   1     130.355 132.581 155.915  0.00  0.00     0.030 C 
ATOM     19  C   UNL d   1     128.875 132.945 155.836  0.00  0.00     0.115 C 
ENDROOT
BRANCH   5  20
ATOM     20  C   UNL d   1     131.381 123.525 153.224  0.00  0.00     0.000 C 
ATOM     21  C   UNL d   1     132.308 123.140 152.064  0.00  0.00     0.000 C 
BRANCH  20  22
ATOM     22  C   UNL d   1     130.429 122.349 153.584  0.00  0.00     0.000 C 
BRANCH  22  23
ATOM     23  C   UNL d   1     130.804 120.944 153.089  0.00  0.00     0.000 C 
BRANCH  23  24
ATOM     24  C   UNL d   1     130.493 119.783 154.042  0.00  0.00     0.000 C 
BRANCH  24  25
ATOM     25  C   UNL d   1     129.933 118.513 153.375  0.00  0.00     0.000 C 
ATOM     26  C   UNL d   1     128.987 117.749 154.306  0.00  0.00     0.000 C 
ATOM     27  C   UNL d   1     129.202 118.878 152.081  0.00  0.00     0.000 C 
ENDBRANCH  24  25
ENDBRANCH  23  24
ENDBRANCH  22  23
ENDBRANCH  20  22
ENDBRANCH   5  20
BRANCH  19  28
ATOM     28  O   UNL d   1     128.618 134.067 156.679  0.00  0.00    -0.385 OA
ATOM     29  H   UNL d   1     129.059 134.840 156.279  0.00  0.00     0.210 HD
ENDBRANCH  19  28
TORSDOF 6
ENDMDL
MODEL 8
REMARK VINA RESULT:    -7.977     36.998     38.245
REMARK INTER + INTRA:         -11.265
REMARK INTER:                 -10.440
REMARK INTRA:                  -0.826
REMARK UNBOUND:                -0.723
REMARK  6 active torsions:
REMARK  status: ('A' for Active; 'I' for Inactive)
REMARK    1  A    between atoms: O_1  and  C_22 
REMARK    2  A    between atoms: C_6  and  C_13 
REMARK    3  A    between atoms: C_13  and  C_21 
REMARK    4  A    between atoms: C_21  and  C_24 
REMARK    5  A    between atoms: C_24  and  C_25 
REMARK    6  A    between atoms: C_25  and  C_26 
ROOT
ATOM      1  C   UNL d   1     140.550 139.870 125.123  0.00  0.00     0.000 C 
ATOM      2  C   UNL d   1     141.735 139.011 125.633  0.00  0.00     0.000 C 
ATOM      3  C   UNL d   1     143.010 139.834 125.822  0.00  0.00     0.005 C 
ATOM      4  C   UNL d   1     142.760 140.961 126.866  0.00  0.00     0.004 C 
ATOM      5  C   UNL d   1     139.469 138.772 124.866  0.00  0.00     0.000 C 
ATOM      6  C   UNL d   1     140.224 140.828 126.286  0.00  0.00     0.000 C 
ATOM      7  C   UNL d   1     144.023 141.905 126.998  0.00  0.00     0.015 C 
ATOM      8  C   UNL d   1     141.776 137.841 124.668  0.00  0.00     0.000 C 
ATOM      9  C   UNL d   1     141.422 141.724 126.645  0.00  0.00     0.000 C 
ATOM     10  C   UNL d   1     140.298 137.530 124.418  0.00  0.00     0.000 C 
ATOM     11  C   UNL d   1     144.197 138.963 126.255  0.00  0.00     0.025 C 
ATOM     12  C   UNL d   1     140.902 140.645 123.829  0.00  0.00     0.000 C 
ATOM     13  C   UNL d   1     145.318 141.080 127.020  0.00  0.00    -0.047 C 
ATOM     14  C   UNL d   1     143.908 142.691 128.337  0.00  0.00     0.006 C 
ATOM     15  C   UNL d   1     145.369 139.774 126.710  0.00  0.00    -0.035 C 
ATOM     16  C   UNL d   1     144.102 142.906 125.819  0.00  0.00     0.004 C 
ATOM     17  C   UNL d   1     146.580 141.814 127.430  0.00  0.00     0.051 C 
ATOM     18  C   UNL d   1     145.172 143.464 128.720  0.00  0.00     0.030 C 
ATOM     19  C   UNL d   1     146.398 142.555 128.753  0.00  0.00     0.115 C 
ENDROOT
BRANCH   5  20
ATOM     20  C   UNL d   1     138.280 139.057 123.884  0.00  0.00     0.000 C 
ATOM     21  C   UNL d   1     136.944 139.258 124.610  0.00  0.00     0.000 C 
BRANCH  20  22
ATOM     22  C   UNL d   1     138.178 137.900 122.848  0.00  0.00     0.000 C 
BRANCH  22  23
ATOM     23  C   UNL d   1     137.141 138.033 121.723  0.00  0.00     0.000 C 
BRANCH  23  24
ATOM     24  C   UNL d   1     136.721 136.732 121.029  0.00  0.00     0.000 C 
BRANCH  24  25
ATOM     25  C   UNL d   1     135.231 136.367 121.154  0.00  0.00     0.000 C 
ATOM     26  C   UNL d   1     134.989 134.871 120.932  0.00  0.00     0.000 C 
ATOM     27  C   UNL d   1     134.703 136.777 122.532  0.00  0.00     0.000 C 
ENDBRANCH  24  25
ENDBRANCH  23  24
ENDBRANCH  22  23
ENDBRANCH  20  22
ENDBRANCH   5  20
BRANCH  19  28
ATOM     28  O   UNL d   1     147.562 143.341 129.002  0.00  0.00    -0.385 OA
ATOM     29  H   UNL d   1     148.338 142.789 128.794  0.00  0.00     0.210 HD
ENDBRANCH  19  28
TORSDOF 6
ENDMDL
MODEL 9
REMARK VINA RESULT:    -7.965     12.227     15.376
REMARK INTER + INTRA:         -11.249
REMARK INTER:                 -10.543
REMARK INTRA:                  -0.707
REMARK UNBOUND:                -0.723
REMARK  6 active torsions:
REMARK  status: ('A' for Active; 'I' for Inactive)
REMARK    1  A    between atoms: O_1  and  C_22 
REMARK    2  A    between atoms: C_6  and  C_13 
REMARK    3  A    between atoms: C_13  and  C_21 
REMARK    4  A    between atoms: C_21  and  C_24 
REMARK    5  A    between atoms: C_24  and  C_25 
REMARK    6  A    between atoms: C_25  and  C_26 
ROOT
ATOM      1  C   UNL d   1     127.281 125.421 172.536  0.00  0.00     0.000 C 
ATOM      2  C   UNL d   1     128.572 125.729 171.735  0.00  0.00     0.000 C 
ATOM      3  C   UNL d   1     129.489 124.510 171.621  0.00  0.00     0.005 C 
ATOM      4  C   UNL d   1     128.744 123.355 170.892  0.00  0.00     0.004 C 
ATOM      5  C   UNL d   1     126.641 126.843 172.635  0.00  0.00     0.000 C 
ATOM      6  C   UNL d   1     126.497 124.426 171.659  0.00  0.00     0.000 C 
ATOM      7  C   UNL d   1     129.622 122.040 170.862  0.00  0.00     0.015 C 
ATOM      8  C   UNL d   1     129.122 126.978 172.398  0.00  0.00     0.000 C 
ATOM      9  C   UNL d   1     127.292 123.134 171.406  0.00  0.00     0.000 C 
ATOM     10  C   UNL d   1     127.869 127.801 172.707  0.00  0.00     0.000 C 
ATOM     11  C   UNL d   1     130.798 124.843 170.891  0.00  0.00     0.025 C 
ATOM     12  C   UNL d   1     127.587 124.830 173.935  0.00  0.00     0.000 C 
ATOM     13  C   UNL d   1     131.084 122.370 170.531  0.00  0.00    -0.047 C 
ATOM     14  C   UNL d   1     129.059 121.100 169.755  0.00  0.00     0.006 C 
ATOM     15  C   UNL d   1     131.579 123.619 170.527  0.00  0.00    -0.035 C 
ATOM     16  C   UNL d   1     129.584 121.308 172.226  0.00  0.00     0.004 C 
ATOM     17  C   UNL d   1     131.981 121.197 170.184  0.00  0.00     0.051 C 
ATOM     18  C   UNL d   1     129.950 119.896 169.444  0.00  0.00     0.030 C 
ATOM     19  C   UNL d   1     131.371 120.324 169.089  0.00  0.00     0.115 C 
ENDROOT
BRANCH   5  20
ATOM     20  C   UNL d   1     125.598 127.157 173.762  0.00  0.00     0.000 C 
ATOM     21  C   UNL d   1     126.079 126.731 175.154  0.00  0.00     0.000 C 
BRANCH  20  22
ATOM     22  C   UNL d   1     124.242 126.477 173.414  0.00  0.00     0.000 C 
BRANCH  22  23
ATOM     23  C   UNL d   1     123.409 127.080 172.272  0.00  0.00     0.000 C 
BRANCH  23  24
ATOM     24  C   UNL d   1     123.650 126.495 170.875  0.00  0.00     0.000 C 
BRANCH  24  25
ATOM     25  C   UNL d   1     124.244 127.472 169.844  0.00  0.00     0.000 C 
ATOM     26  C   UNL d   1     124.625 128.812 170.480  0.00  0.00     0.000 C 
ATOM     27  C   UNL d   1     125.473 126.848 169.176  0.00  0.00     0.000 C 
ENDBRANCH  24  25
ENDBRANCH  23  24
ENDBRANCH  22  23
ENDBRANCH  20  22
ENDBRANCH   5  20
BRANCH  19  28
ATOM     28  O   UNL d   1     132.185 119.166 168.920  0.00  0.00    -0.385 OA
ATOM     29  H   UNL d   1     132.226 118.708 169.779  0.00  0.00     0.210 HD
ENDBRANCH  19  28
TORSDOF 6
ENDMDL
MODEL 10
REMARK VINA RESULT:    -7.870     14.103     17.005
REMARK INTER + INTRA:         -11.123
REMARK INTER:                  -9.471
REMARK INTRA:                  -1.653
REMARK UNBOUND:                -0.723
REMARK  6 active torsions:
REMARK  status: ('A' for Active; 'I' for Inactive)
REMARK    1  A    between atoms: O_1  and  C_22 
REMARK    2  A    between atoms: C_6  and  C_13 
REMARK    3  A    between atoms: C_13  and  C_21 
REMARK    4  A    between atoms: C_21  and  C_24 
REMARK    5  A    between atoms: C_24  and  C_25 
REMARK    6  A    between atoms: C_25  and  C_26 
ROOT
ATOM      1  C   UNL d   1     129.169 122.274 171.535  0.00  0.00     0.000 C 
ATOM      2  C   UNL d   1     128.737 120.972 172.255  0.00  0.00     0.000 C 
ATOM      3  C   UNL d   1     128.659 119.779 171.301  0.00  0.00     0.005 C 
ATOM      4  C   UNL d   1     130.053 119.524 170.660  0.00  0.00     0.004 C 
ATOM      5  C   UNL d   1     129.001 123.323 172.680  0.00  0.00     0.000 C 
ATOM      6  C   UNL d   1     130.628 122.025 171.104  0.00  0.00     0.000 C 
ATOM      7  C   UNL d   1     129.981 118.372 169.578  0.00  0.00     0.015 C 
ATOM      8  C   UNL d   1     127.480 121.372 173.005  0.00  0.00     0.000 C 
ATOM      9  C   UNL d   1     130.749 120.821 170.155  0.00  0.00     0.000 C 
ATOM     10  C   UNL d   1     127.796 122.783 173.507  0.00  0.00     0.000 C 
ATOM     11  C   UNL d   1     128.158 118.511 172.007  0.00  0.00     0.025 C 
ATOM     12  C   UNL d   1     128.265 122.600 170.319  0.00  0.00     0.000 C 
ATOM     13  C   UNL d   1     129.117 117.207 170.083  0.00  0.00    -0.047 C 
ATOM     14  C   UNL d   1     131.425 117.849 169.322  0.00  0.00     0.006 C 
ATOM     15  C   UNL d   1     128.336 117.282 171.173  0.00  0.00    -0.035 C 
ATOM     16  C   UNL d   1     129.376 118.886 168.249  0.00  0.00     0.004 C 
ATOM     17  C   UNL d   1     129.189 115.918 169.287  0.00  0.00     0.051 C 
ATOM     18  C   UNL d   1     131.489 116.573 168.481  0.00  0.00     0.030 C 
ATOM     19  C   UNL d   1     130.632 115.461 169.080  0.00  0.00     0.115 C 
ENDROOT
BRANCH   5  20
ATOM     20  C   UNL d   1     128.828 124.842 172.333  0.00  0.00     0.000 C 
ATOM     21  C   UNL d   1     130.048 125.685 172.724  0.00  0.00     0.000 C 
BRANCH  20  22
ATOM     22  C   UNL d   1     127.539 125.384 173.016  0.00  0.00     0.000 C 
BRANCH  22  23
ATOM     23  C   UNL d   1     126.664 126.365 172.222  0.00  0.00     0.000 C 
BRANCH  23  24
ATOM     24  C   UNL d   1     125.304 125.834 171.752  0.00  0.00     0.000 C 
BRANCH  24  25
ATOM     25  C   UNL d   1     125.283 124.353 171.330  0.00  0.00     0.000 C 
ATOM     26  C   UNL d   1     124.365 123.517 172.227  0.00  0.00     0.000 C 
ATOM     27  C   UNL d   1     124.835 124.228 169.872  0.00  0.00     0.000 C 
ENDBRANCH  24  25
ENDBRANCH  23  24
ENDBRANCH  22  23
ENDBRANCH  20  22
ENDBRANCH   5  20
BRANCH  19  28
ATOM     28  O   UNL d   1     130.636 114.337 168.202  0.00  0.00    -0.385 OA
ATOM     29  H   UNL d   1     129.728 114.227 167.864  0.00  0.00     0.210 HD
ENDBRANCH  19  28
TORSDOF 6
ENDMDL
MODEL 11
REMARK VINA RESULT:    -7.799     41.368     44.828
REMARK INTER + INTRA:         -11.029
REMARK INTER:                  -9.716
REMARK INTRA:                  -1.313
REMARK UNBOUND:                -0.723
REMARK  6 active torsions:
REMARK  status: ('A' for Active; 'I' for Inactive)
REMARK    1  A    between atoms: O_1  and  C_22 
REMARK    2  A    between atoms: C_6  and  C_13 
REMARK    3  A    between atoms: C_13  and  C_21 
REMARK    4  A    between atoms: C_21  and  C_24 
REMARK    5  A    between atoms: C_24  and  C_25 
REMARK    6  A    between atoms: C_25  and  C_26 
ROOT
ATOM      1  C   UNL d   1     147.729 150.777 124.975  0.00  0.00     0.000 C 
ATOM      2  C   UNL d   1     149.170 150.429 125.428  0.00  0.00     0.000 C 
ATOM      3  C   UNL d   1     149.660 151.340 126.554  0.00  0.00     0.005 C 
ATOM      4  C   UNL d   1     148.728 151.197 127.792  0.00  0.00     0.004 C 
ATOM      5  C   UNL d   1     147.564 149.832 123.741  0.00  0.00     0.000 C 
ATOM      6  C   UNL d   1     146.836 150.419 126.179  0.00  0.00     0.000 C 
ATOM      7  C   UNL d   1     149.136 152.212 128.934  0.00  0.00     0.015 C 
ATOM      8  C   UNL d   1     149.961 150.404 124.133  0.00  0.00     0.000 C 
ATOM      9  C   UNL d   1     147.214 151.225 127.433  0.00  0.00     0.000 C 
ATOM     10  C   UNL d   1     148.998 149.753 123.137  0.00  0.00     0.000 C 
ATOM     11  C   UNL d   1     151.113 151.039 126.946  0.00  0.00     0.025 C 
ATOM     12  C   UNL d   1     147.582 152.268 124.580  0.00  0.00     0.000 C 
ATOM     13  C   UNL d   1     150.662 152.264 129.095  0.00  0.00    -0.047 C 
ATOM     14  C   UNL d   1     148.508 151.723 130.272  0.00  0.00     0.006 C 
ATOM     15  C   UNL d   1     151.518 151.718 128.216  0.00  0.00    -0.035 C 
ATOM     16  C   UNL d   1     148.630 153.642 128.621  0.00  0.00     0.004 C 
ATOM     17  C   UNL d   1     151.188 152.966 130.332  0.00  0.00     0.051 C 
ATOM     18  C   UNL d   1     149.012 152.468 131.509  0.00  0.00     0.030 C 
ATOM     19  C   UNL d   1     150.535 152.432 131.606  0.00  0.00     0.115 C 
ENDROOT
BRANCH   5  20
ATOM     20  C   UNL d   1     146.493 150.156 122.643  0.00  0.00     0.000 C 
ATOM     21  C   UNL d   1     145.351 149.133 122.606  0.00  0.00     0.000 C 
BRANCH  20  22
ATOM     22  C   UNL d   1     147.190 150.257 121.256  0.00  0.00     0.000 C 
BRANCH  22  23
ATOM     23  C   UNL d   1     147.587 151.653 120.752  0.00  0.00     0.000 C 
BRANCH  23  24
ATOM     24  C   UNL d   1     148.836 151.725 119.865  0.00  0.00     0.000 C 
BRANCH  24  25
ATOM     25  C   UNL d   1     150.172 151.875 120.616  0.00  0.00     0.000 C 
ATOM     26  C   UNL d   1     151.342 152.113 119.657  0.00  0.00     0.000 C 
ATOM     27  C   UNL d   1     150.083 153.027 121.620  0.00  0.00     0.000 C 
ENDBRANCH  24  25
ENDBRANCH  23  24
ENDBRANCH  22  23
ENDBRANCH  20  22
ENDBRANCH   5  20
BRANCH  19  28
ATOM     28  O   UNL d   1     150.958 153.232 132.708  0.00  0.00    -0.385 OA
ATOM     29  H   UNL d   1     150.655 152.791 133.523  0.00  0.00     0.210 HD
ENDBRANCH  19  28
TORSDOF 6
ENDMDL
MODEL 12
REMARK VINA RESULT:    -7.793      5.979      9.458
REMARK INTER + INTRA:         -11.022
REMARK INTER:                  -9.828
REMARK INTRA:                  -1.194
REMARK UNBOUND:                -0.723
REMARK  6 active torsions:
REMARK  status: ('A' for Active; 'I' for Inactive)
REMARK    1  A    between atoms: O_1  and  C_22 
REMARK    2  A    between atoms: C_6  and  C_13 
REMARK    3  A    between atoms: C_13  and  C_21 
REMARK    4  A    between atoms: C_21  and  C_24 
REMARK    5  A    between atoms: C_24  and  C_25 
REMARK    6  A    between atoms: C_25  and  C_26 
ROOT
ATOM      1  C   UNL d   1     130.427 125.946 153.880  0.00  0.00     0.000 C 
ATOM      2  C   UNL d   1     129.093 126.669 153.562  0.00  0.00     0.000 C 
ATOM      3  C   UNL d   1     128.816 127.825 154.524  0.00  0.00     0.005 C 
ATOM      4  C   UNL d   1     129.958 128.877 154.426  0.00  0.00     0.004 C 
ATOM      5  C   UNL d   1     130.365 124.745 152.883  0.00  0.00     0.000 C 
ATOM      6  C   UNL d   1     131.524 126.982 153.566  0.00  0.00     0.000 C 
ATOM      7  C   UNL d   1     129.765 130.030 155.492  0.00  0.00     0.015 C 
ATOM      8  C   UNL d   1     128.079 125.542 153.488  0.00  0.00     0.000 C 
ATOM      9  C   UNL d   1     131.382 128.248 154.428  0.00  0.00     0.000 C 
ATOM     10  C   UNL d   1     128.844 124.416 152.788  0.00  0.00     0.000 C 
ATOM     11  C   UNL d   1     127.459 128.488 154.250  0.00  0.00     0.025 C 
ATOM     12  C   UNL d   1     130.499 125.468 155.352  0.00  0.00     0.000 C 
ATOM     13  C   UNL d   1     128.294 130.464 155.561  0.00  0.00    -0.047 C 
ATOM     14  C   UNL d   1     130.627 131.251 155.055  0.00  0.00     0.006 C 
ATOM     15  C   UNL d   1     127.292 129.781 154.985  0.00  0.00    -0.035 C 
ATOM     16  C   UNL d   1     130.204 129.569 156.904  0.00  0.00     0.004 C 
ATOM     17  C   UNL d   1     128.002 131.745 156.319  0.00  0.00     0.051 C 
ATOM     18  C   UNL d   1     130.356 132.526 155.855  0.00  0.00     0.030 C 
ATOM     19  C   UNL d   1     128.876 132.900 155.835  0.00  0.00     0.115 C 
ENDROOT
BRANCH   5  20
ATOM     20  C   UNL d   1     131.217 123.457 153.151  0.00  0.00     0.000 C 
ATOM     21  C   UNL d   1     132.332 123.255 152.118  0.00  0.00     0.000 C 
BRANCH  20  22
ATOM     22  C   UNL d   1     130.278 122.218 153.202  0.00  0.00     0.000 C 
BRANCH  22  23
ATOM     23  C   UNL d   1     130.535 121.166 154.292  0.00  0.00     0.000 C 
BRANCH  23  24
ATOM     24  C   UNL d   1     131.969 121.084 154.831  0.00  0.00     0.000 C 
BRANCH  24  25
ATOM     25  C   UNL d   1     132.176 121.658 156.245  0.00  0.00     0.000 C 
ATOM     26  C   UNL d   1     132.695 120.598 157.221  0.00  0.00     0.000 C 
ATOM     27  C   UNL d   1     133.151 122.838 156.196  0.00  0.00     0.000 C 
ENDBRANCH  24  25
ENDBRANCH  23  24
ENDBRANCH  22  23
ENDBRANCH  20  22
ENDBRANCH   5  20
BRANCH  19  28
ATOM     28  O   UNL d   1     128.661 134.025 156.685  0.00  0.00    -0.385 OA
ATOM     29  H   UNL d   1     128.899 133.757 157.591  0.00  0.00     0.210 HD
ENDBRANCH  19  28
TORSDOF 6
ENDMDL
MODEL 13
REMARK VINA RESULT:    -7.777      8.113     10.934
REMARK INTER + INTRA:         -11.001
REMARK INTER:                  -9.504
REMARK INTRA:                  -1.497
REMARK UNBOUND:                -0.723
REMARK  6 active torsions:
REMARK  status: ('A' for Active; 'I' for Inactive)
REMARK    1  A    between atoms: O_1  and  C_22 
REMARK    2  A    between atoms: C_6  and  C_13 
REMARK    3  A    between atoms: C_13  and  C_21 
REMARK    4  A    between atoms: C_21  and  C_24 
REMARK    5  A    between atoms: C_24  and  C_25 
REMARK    6  A    between atoms: C_25  and  C_26 
ROOT
ATOM      1  C   UNL d   1     131.055 125.213 155.225  0.00  0.00     0.000 C 
ATOM      2  C   UNL d   1     131.106 124.144 154.104  0.00  0.00     0.000 C 
ATOM      3  C   UNL d   1     132.152 123.062 154.381  0.00  0.00     0.005 C 
ATOM      4  C   UNL d   1     131.817 122.333 155.714  0.00  0.00     0.004 C 
ATOM      5  C   UNL d   1     130.056 126.246 154.612  0.00  0.00     0.000 C 
ATOM      6  C   UNL d   1     130.522 124.465 156.463  0.00  0.00     0.000 C 
ATOM      7  C   UNL d   1     132.943 121.288 156.091  0.00  0.00     0.015 C 
ATOM      8  C   UNL d   1     131.240 124.959 152.832  0.00  0.00     0.000 C 
ATOM      9  C   UNL d   1     131.442 123.303 156.873  0.00  0.00     0.000 C 
ATOM     10  C   UNL d   1     130.328 126.163 153.079  0.00  0.00     0.000 C 
ATOM     11  C   UNL d   1     132.248 122.049 153.231  0.00  0.00     0.025 C 
ATOM     12  C   UNL d   1     132.443 125.846 155.496  0.00  0.00     0.000 C 
ATOM     13  C   UNL d   1     133.391 120.502 154.851  0.00  0.00    -0.047 C 
ATOM     14  C   UNL d   1     132.357 120.290 157.131  0.00  0.00     0.006 C 
ATOM     15  C   UNL d   1     133.053 120.842 153.596  0.00  0.00    -0.035 C 
ATOM     16  C   UNL d   1     134.183 121.992 156.696  0.00  0.00     0.004 C 
ATOM     17  C   UNL d   1     134.248 119.276 155.101  0.00  0.00     0.051 C 
ATOM     18  C   UNL d   1     133.249 119.079 157.410  0.00  0.00     0.030 C 
ATOM     19  C   UNL d   1     133.610 118.339 156.124  0.00  0.00     0.115 C 
ENDROOT
BRANCH   5  20
ATOM     20  C   UNL d   1     130.054 127.730 155.117  0.00  0.00     0.000 C 
ATOM     21  C   UNL d   1     129.411 127.887 156.500  0.00  0.00     0.000 C 
BRANCH  20  22
ATOM     22  C   UNL d   1     129.340 128.631 154.069  0.00  0.00     0.000 C 
BRANCH  22  23
ATOM     23  C   UNL d   1     127.825 128.842 154.217  0.00  0.00     0.000 C 
BRANCH  23  24
ATOM     24  C   UNL d   1     126.925 127.791 153.557  0.00  0.00     0.000 C 
BRANCH  24  25
ATOM     25  C   UNL d   1     126.042 126.978 154.521  0.00  0.00     0.000 C 
ATOM     26  C   UNL d   1     126.627 125.589 154.798  0.00  0.00     0.000 C 
ATOM     27  C   UNL d   1     125.865 127.736 155.839  0.00  0.00     0.000 C 
ENDBRANCH  24  25
ENDBRANCH  23  24
ENDBRANCH  22  23
ENDBRANCH  20  22
ENDBRANCH   5  20
BRANCH  19  28
ATOM     28  O   UNL d   1     134.531 117.292 156.425  0.00  0.00    -0.385 OA
ATOM     29  H   UNL d   1     134.342 116.553 155.818  0.00  0.00     0.210 HD
ENDBRANCH  19  28
TORSDOF 6
ENDMDL
MODEL 14
REMARK VINA RESULT:    -7.749     12.719     15.207
REMARK INTER + INTRA:         -10.964
REMARK INTER:                  -9.694
REMARK INTRA:                  -1.270
REMARK UNBOUND:                -0.723
REMARK  6 active torsions:
REMARK  status: ('A' for Active; 'I' for Inactive)
REMARK    1  A    between atoms: O_1  and  C_22 
REMARK    2  A    between atoms: C_6  and  C_13 
REMARK    3  A    between atoms: C_13  and  C_21 
REMARK    4  A    between atoms: C_21  and  C_24 
REMARK    5  A    between atoms: C_24  and  C_25 
REMARK    6  A    between atoms: C_25  and  C_26 
ROOT
ATOM      1  C   UNL d   1     129.165 123.567 171.103  0.00  0.00     0.000 C 
ATOM      2  C   UNL d   1     127.695 123.183 171.410  0.00  0.00     0.000 C 
ATOM      3  C   UNL d   1     126.896 124.356 171.979  0.00  0.00     0.005 C 
ATOM      4  C   UNL d   1     126.873 125.526 170.954  0.00  0.00     0.004 C 
ATOM      5  C   UNL d   1     129.764 122.178 170.712  0.00  0.00     0.000 C 
ATOM      6  C   UNL d   1     129.077 124.576 169.941  0.00  0.00     0.000 C 
ATOM      7  C   UNL d   1     126.155 126.800 171.557  0.00  0.00     0.015 C 
ATOM      8  C   UNL d   1     127.817 121.926 172.252  0.00  0.00     0.000 C 
ATOM      9  C   UNL d   1     128.265 125.825 170.325  0.00  0.00     0.000 C 
ATOM     10  C   UNL d   1     128.975 121.168 171.598  0.00  0.00     0.000 C 
ATOM     11  C   UNL d   1     125.463 123.948 172.351  0.00  0.00     0.025 C 
ATOM     12  C   UNL d   1     129.882 124.177 172.334  0.00  0.00     0.000 C 
ATOM     13  C   UNL d   1     124.888 126.396 172.324  0.00  0.00    -0.047 C 
ATOM     14  C   UNL d   1     125.751 127.737 170.382  0.00  0.00     0.006 C 
ATOM     15  C   UNL d   1     124.588 125.127 172.644  0.00  0.00    -0.035 C 
ATOM     16  C   UNL d   1     127.089 127.564 172.528  0.00  0.00     0.004 C 
ATOM     17  C   UNL d   1     123.944 127.519 172.709  0.00  0.00     0.051 C 
ATOM     18  C   UNL d   1     124.835 128.893 170.789  0.00  0.00     0.030 C 
ATOM     19  C   UNL d   1     123.585 128.393 171.509  0.00  0.00     0.115 C 
ENDROOT
BRANCH   5  20
ATOM     20  C   UNL d   1     131.311 121.938 170.801  0.00  0.00     0.000 C 
ATOM     21  C   UNL d   1     132.093 122.683 169.713  0.00  0.00     0.000 C 
BRANCH  20  22
ATOM     22  C   UNL d   1     131.600 120.410 170.743  0.00  0.00     0.000 C 
BRANCH  22  23
ATOM     23  C   UNL d   1     131.464 119.705 169.385  0.00  0.00     0.000 C 
BRANCH  23  24
ATOM     24  C   UNL d   1     130.930 118.268 169.417  0.00  0.00     0.000 C 
BRANCH  24  25
ATOM     25  C   UNL d   1     129.430 118.114 169.110  0.00  0.00     0.000 C 
ATOM     26  C   UNL d   1     128.604 117.907 170.383  0.00  0.00     0.000 C 
ATOM     27  C   UNL d   1     128.918 119.344 168.356  0.00  0.00     0.000 C 
ENDBRANCH  24  25
ENDBRANCH  23  24
ENDBRANCH  22  23
ENDBRANCH  20  22
ENDBRANCH   5  20
BRANCH  19  28
ATOM     28  O   UNL d   1     122.824 129.509 171.965  0.00  0.00    -0.385 OA
ATOM     29  H   UNL d   1     123.042 129.648 172.905  0.00  0.00     0.210 HD
ENDBRANCH  19  28
TORSDOF 6
ENDMDL
MODEL 15
REMARK VINA RESULT:    -7.671     13.040     15.670
REMARK INTER + INTRA:         -10.861
REMARK INTER:                  -9.763
REMARK INTRA:                  -1.098
REMARK UNBOUND:                -0.723
REMARK  6 active torsions:
REMARK  status: ('A' for Active; 'I' for Inactive)
REMARK    1  A    between atoms: O_1  and  C_22 
REMARK    2  A    between atoms: C_6  and  C_13 
REMARK    3  A    between atoms: C_13  and  C_21 
REMARK    4  A    between atoms: C_21  and  C_24 
REMARK    5  A    between atoms: C_24  and  C_25 
REMARK    6  A    between atoms: C_25  and  C_26 
ROOT
ATOM      1  C   UNL d   1     126.833 122.846 172.377  0.00  0.00     0.000 C 
ATOM      2  C   UNL d   1     127.181 123.958 173.400  0.00  0.00     0.000 C 
ATOM      3  C   UNL d   1     126.844 125.354 172.875  0.00  0.00     0.005 C 
ATOM      4  C   UNL d   1     125.321 125.451 172.572  0.00  0.00     0.004 C 
ATOM      5  C   UNL d   1     127.424 121.586 173.088  0.00  0.00     0.000 C 
ATOM      6  C   UNL d   1     125.295 122.863 172.279  0.00  0.00     0.000 C 
ATOM      7  C   UNL d   1     124.957 126.844 171.917  0.00  0.00     0.015 C 
ATOM      8  C   UNL d   1     128.621 123.664 173.779  0.00  0.00     0.000 C 
ATOM      9  C   UNL d   1     124.766 124.223 171.794  0.00  0.00     0.000 C 
ATOM     10  C   UNL d   1     128.669 122.136 173.848  0.00  0.00     0.000 C 
ATOM     11  C   UNL d   1     127.260 126.454 173.862  0.00  0.00     0.025 C 
ATOM     12  C   UNL d   1     127.495 123.090 170.997  0.00  0.00     0.000 C 
ATOM     13  C   UNL d   1     125.696 127.987 172.627  0.00  0.00    -0.047 C 
ATOM     14  C   UNL d   1     123.425 127.070 172.066  0.00  0.00     0.006 C 
ATOM     15  C   UNL d   1     126.696 127.793 173.502  0.00  0.00    -0.035 C 
ATOM     16  C   UNL d   1     125.338 126.875 170.416  0.00  0.00     0.004 C 
ATOM     17  C   UNL d   1     125.233 129.395 172.305  0.00  0.00     0.051 C 
ATOM     18  C   UNL d   1     122.961 128.480 171.697  0.00  0.00     0.030 C 
ATOM     19  C   UNL d   1     123.723 129.546 172.479  0.00  0.00     0.115 C 
ENDROOT
BRANCH   5  20
ATOM     20  C   UNL d   1     127.777 120.308 172.253  0.00  0.00     0.000 C 
ATOM     21  C   UNL d   1     127.081 119.045 172.775  0.00  0.00     0.000 C 
BRANCH  20  22
ATOM     22  C   UNL d   1     129.321 120.118 172.227  0.00  0.00     0.000 C 
BRANCH  22  23
ATOM     23  C   UNL d   1     130.055 120.386 170.904  0.00  0.00     0.000 C 
BRANCH  23  24
ATOM     24  C   UNL d   1     131.097 121.512 170.922  0.00  0.00     0.000 C 
BRANCH  24  25
ATOM     25  C   UNL d   1     131.983 121.612 169.668  0.00  0.00     0.000 C 
ATOM     26  C   UNL d   1     131.159 121.890 168.407  0.00  0.00     0.000 C 
ATOM     27  C   UNL d   1     133.034 122.710 169.852  0.00  0.00     0.000 C 
ENDBRANCH  24  25
ENDBRANCH  23  24
ENDBRANCH  22  23
ENDBRANCH  20  22
ENDBRANCH   5  20
BRANCH  19  28
ATOM     28  O   UNL d   1     123.335 130.839 172.017  0.00  0.00    -0.385 OA
ATOM     29  H   UNL d   1     123.760 131.497 172.598  0.00  0.00     0.210 HD
ENDBRANCH  19  28
TORSDOF 6
ENDMDL
MODEL 16
REMARK VINA RESULT:    -7.649     36.775     38.322
REMARK INTER + INTRA:         -10.831
REMARK INTER:                  -9.338
REMARK INTRA:                  -1.494
REMARK UNBOUND:                -0.723
REMARK  6 active torsions:
REMARK  status: ('A' for Active; 'I' for Inactive)
REMARK    1  A    between atoms: O_1  and  C_22 
REMARK    2  A    between atoms: C_6  and  C_13 
REMARK    3  A    between atoms: C_13  and  C_21 
REMARK    4  A    between atoms: C_21  and  C_24 
REMARK    5  A    between atoms: C_24  and  C_25 
REMARK    6  A    between atoms: C_25  and  C_26 
ROOT
ATOM      1  C   UNL d   1     140.503 140.002 125.357  0.00  0.00     0.000 C 
ATOM      2  C   UNL d   1     141.714 139.140 125.795  0.00  0.00     0.000 C 
ATOM      3  C   UNL d   1     142.990 139.969 125.954  0.00  0.00     0.005 C 
ATOM      4  C   UNL d   1     142.774 141.066 127.036  0.00  0.00     0.004 C 
ATOM      5  C   UNL d   1     139.421 138.902 125.114  0.00  0.00     0.000 C 
ATOM      6  C   UNL d   1     140.218 140.926 126.557  0.00  0.00     0.000 C 
ATOM      7  C   UNL d   1     144.034 142.017 127.143  0.00  0.00     0.015 C 
ATOM      8  C   UNL d   1     141.724 137.996 124.799  0.00  0.00     0.000 C 
ATOM      9  C   UNL d   1     141.423 141.823 126.890  0.00  0.00     0.000 C 
ATOM     10  C   UNL d   1     140.240 137.679 124.601  0.00  0.00     0.000 C 
ATOM     11  C   UNL d   1     144.200 139.096 126.316  0.00  0.00     0.025 C 
ATOM     12  C   UNL d   1     140.796 140.814 124.070  0.00  0.00     0.000 C 
ATOM     13  C   UNL d   1     145.335 141.203 127.090  0.00  0.00    -0.047 C 
ATOM     14  C   UNL d   1     143.968 142.767 128.505  0.00  0.00     0.006 C 
ATOM     15  C   UNL d   1     145.384 139.906 126.744  0.00  0.00    -0.035 C 
ATOM     16  C   UNL d   1     144.058 143.049 125.988  0.00  0.00     0.004 C 
ATOM     17  C   UNL d   1     146.607 141.936 127.468  0.00  0.00     0.051 C 
ATOM     18  C   UNL d   1     145.241 143.540 128.857  0.00  0.00     0.030 C 
ATOM     19  C   UNL d   1     146.474 142.642 128.816  0.00  0.00     0.115 C 
ENDROOT
BRANCH   5  20
ATOM     20  C   UNL d   1     138.191 139.201 124.189  0.00  0.00     0.000 C 
ATOM     21  C   UNL d   1     136.851 138.859 124.851  0.00  0.00     0.000 C 
BRANCH  20  22
ATOM     22  C   UNL d   1     138.357 138.434 122.846  0.00  0.00     0.000 C 
BRANCH  22  23
ATOM     23  C   UNL d   1     138.168 139.222 121.541  0.00  0.00     0.000 C 
BRANCH  23  24
ATOM     24  C   UNL d   1     137.176 140.390 121.591  0.00  0.00     0.000 C 
BRANCH  24  25
ATOM     25  C   UNL d   1     137.794 141.790 121.416  0.00  0.00     0.000 C 
ATOM     26  C   UNL d   1     137.833 142.566 122.736  0.00  0.00     0.000 C 
ATOM     27  C   UNL d   1     139.208 141.672 120.843  0.00  0.00     0.000 C 
ENDBRANCH  24  25
ENDBRANCH  23  24
ENDBRANCH  22  23
ENDBRANCH  20  22
ENDBRANCH   5  20
BRANCH  19  28
ATOM     28  O   UNL d   1     147.641 143.431 129.038  0.00  0.00    -0.385 OA
ATOM     29  H   UNL d   1     148.413 142.887 128.796  0.00  0.00     0.210 HD
ENDBRANCH  19  28
TORSDOF 6
ENDMDL
MODEL 17
REMARK VINA RESULT:    -7.427     51.193     55.547
REMARK INTER + INTRA:         -10.538
REMARK INTER:                  -9.851
REMARK INTRA:                  -0.687
REMARK UNBOUND:                -0.723
REMARK  6 active torsions:
REMARK  status: ('A' for Active; 'I' for Inactive)
REMARK    1  A    between atoms: O_1  and  C_22 
REMARK    2  A    between atoms: C_6  and  C_13 
REMARK    3  A    between atoms: C_13  and  C_21 
REMARK    4  A    between atoms: C_21  and  C_24 
REMARK    5  A    between atoms: C_24  and  C_25 
REMARK    6  A    between atoms: C_25  and  C_26 
ROOT
ATOM      1  C   UNL d   1     155.160 101.358 122.966  0.00  0.00     0.000 C 
ATOM      2  C   UNL d   1     154.004 101.169 121.951  0.00  0.00     0.000 C 
ATOM      3  C   UNL d   1     154.512 100.819 120.551  0.00  0.00     0.005 C 
ATOM      4  C   UNL d   1     155.318  99.489 120.601  0.00  0.00     0.004 C 
ATOM      5  C   UNL d   1     154.380 101.861 124.222  0.00  0.00     0.000 C 
ATOM      6  C   UNL d   1     155.785  99.958 123.120  0.00  0.00     0.000 C 
ATOM      7  C   UNL d   1     155.959  99.157 119.193  0.00  0.00     0.015 C 
ATOM      8  C   UNL d   1     153.169 102.426 122.114  0.00  0.00     0.000 C 
ATOM      9  C   UNL d   1     156.327  99.420 121.784  0.00  0.00     0.000 C 
ATOM     10  C   UNL d   1     153.197 102.681 123.623  0.00  0.00     0.000 C 
ATOM     11  C   UNL d   1     153.366 100.708 119.536  0.00  0.00     0.025 C 
ATOM     12  C   UNL d   1     156.202 102.397 122.482  0.00  0.00     0.000 C 
ATOM     13  C   UNL d   1     154.956  99.433 118.063  0.00  0.00    -0.047 C 
ATOM     14  C   UNL d   1     156.336  97.647 119.169  0.00  0.00     0.006 C 
ATOM     15  C   UNL d   1     153.804 100.100 118.240  0.00  0.00    -0.035 C 
ATOM     16  C   UNL d   1     157.227 100.009 118.938  0.00  0.00     0.004 C 
ATOM     17  C   UNL d   1     155.319  98.895 116.692  0.00  0.00     0.051 C 
ATOM     18  C   UNL d   1     156.743  97.125 117.790  0.00  0.00     0.030 C 
ATOM     19  C   UNL d   1     155.670  97.409 116.742  0.00  0.00     0.115 C 
ENDROOT
BRANCH   5  20
ATOM     20  C   UNL d   1     155.129 102.663 125.341  0.00  0.00     0.000 C 
ATOM     21  C   UNL d   1     155.727 101.758 126.425  0.00  0.00     0.000 C 
BRANCH  20  22
ATOM     22  C   UNL d   1     154.158 103.707 125.967  0.00  0.00     0.000 C 
BRANCH  22  23
ATOM     23  C   UNL d   1     154.496 104.257 127.361  0.00  0.00     0.000 C 
BRANCH  23  24
ATOM     24  C   UNL d   1     154.068 105.702 127.642  0.00  0.00     0.000 C 
BRANCH  24  25
ATOM     25  C   UNL d   1     153.080 105.883 128.808  0.00  0.00     0.000 C 
ATOM     26  C   UNL d   1     152.641 104.540 129.399  0.00  0.00     0.000 C 
ATOM     27  C   UNL d   1     153.710 106.748 129.903  0.00  0.00     0.000 C 
ENDBRANCH  24  25
ENDBRANCH  23  24
ENDBRANCH  22  23
ENDBRANCH  20  22
ENDBRANCH   5  20
BRANCH  19  28
ATOM     28  O   UNL d   1     156.145  97.006 115.459  0.00  0.00    -0.385 OA
ATOM     29  H   UNL d   1     155.539  97.379 114.793  0.00  0.00     0.210 HD
ENDBRANCH  19  28
TORSDOF 6
ENDMDL
MODEL 18
REMARK VINA RESULT:    -7.423     12.429     16.254
REMARK INTER + INTRA:         -10.533
REMARK INTER:                  -9.339
REMARK INTRA:                  -1.194
REMARK UNBOUND:                -0.723
REMARK  6 active torsions:
REMARK  status: ('A' for Active; 'I' for Inactive)
REMARK    1  A    between atoms: O_1  and  C_22 
REMARK    2  A    between atoms: C_6  and  C_13 
REMARK    3  A    between atoms: C_13  and  C_21 
REMARK    4  A    between atoms: C_21  and  C_24 
REMARK    5  A    between atoms: C_24  and  C_25 
REMARK    6  A    between atoms: C_25  and  C_26 
ROOT
ATOM      1  C   UNL d   1     128.093 123.651 171.986  0.00  0.00     0.000 C 
ATOM      2  C   UNL d   1     128.716 122.629 171.001  0.00  0.00     0.000 C 
ATOM      3  C   UNL d   1     128.991 121.278 171.664  0.00  0.00     0.005 C 
ATOM      4  C   UNL d   1     127.660 120.671 172.195  0.00  0.00     0.004 C 
ATOM      5  C   UNL d   1     128.083 124.945 171.112  0.00  0.00     0.000 C 
ATOM      6  C   UNL d   1     126.696 123.088 172.312  0.00  0.00     0.000 C 
ATOM      7  C   UNL d   1     127.923 119.329 172.991  0.00  0.00     0.015 C 
ATOM      8  C   UNL d   1     129.887 123.378 170.394  0.00  0.00     0.000 C 
ATOM      9  C   UNL d   1     126.775 121.696 172.962  0.00  0.00     0.000 C 
ATOM     10  C   UNL d   1     129.349 124.800 170.215  0.00  0.00     0.000 C 
ATOM     11  C   UNL d   1     129.676 120.296 170.703  0.00  0.00     0.025 C 
ATOM     12  C   UNL d   1     128.948 123.828 173.266  0.00  0.00     0.000 C 
ATOM     13  C   UNL d   1     128.953 118.457 172.258  0.00  0.00    -0.047 C 
ATOM     14  C   UNL d   1     126.582 118.545 173.086  0.00  0.00     0.006 C 
ATOM     15  C   UNL d   1     129.701 118.897 171.233  0.00  0.00    -0.035 C 
ATOM     16  C   UNL d   1     128.454 119.616 174.417  0.00  0.00     0.004 C 
ATOM     17  C   UNL d   1     129.092 117.026 172.741  0.00  0.00     0.051 C 
ATOM     18  C   UNL d   1     126.727 117.117 173.615  0.00  0.00     0.030 C 
ATOM     19  C   UNL d   1     127.741 116.316 172.803  0.00  0.00     0.115 C 
ENDROOT
BRANCH   5  20
ATOM     20  C   UNL d   1     128.020 126.354 171.797  0.00  0.00     0.000 C 
ATOM     21  C   UNL d   1     127.047 126.397 172.981  0.00  0.00     0.000 C 
BRANCH  20  22
ATOM     22  C   UNL d   1     127.646 127.428 170.734  0.00  0.00     0.000 C 
BRANCH  22  23
ATOM     23  C   UNL d   1     126.859 126.971 169.497  0.00  0.00     0.000 C 
BRANCH  23  24
ATOM     24  C   UNL d   1     125.333 127.114 169.573  0.00  0.00     0.000 C 
BRANCH  24  25
ATOM     25  C   UNL d   1     124.546 125.791 169.581  0.00  0.00     0.000 C 
ATOM     26  C   UNL d   1     125.344 124.647 168.947  0.00  0.00     0.000 C 
ATOM     27  C   UNL d   1     124.158 125.419 171.015  0.00  0.00     0.000 C 
ENDBRANCH  24  25
ENDBRANCH  23  24
ENDBRANCH  22  23
ENDBRANCH  20  22
ENDBRANCH   5  20
BRANCH  19  28
ATOM     28  O   UNL d   1     127.922 115.036 173.404  0.00  0.00    -0.385 OA
ATOM     29  H   UNL d   1     128.784 115.046 173.859  0.00  0.00     0.210 HD
ENDBRANCH  19  28
TORSDOF 6
ENDMDL
MODEL 19
REMARK VINA RESULT:    -7.271     14.266     17.196
REMARK INTER + INTRA:         -10.332
REMARK INTER:                  -8.662
REMARK INTRA:                  -1.670
REMARK UNBOUND:                -0.723
REMARK  6 active torsions:
REMARK  status: ('A' for Active; 'I' for Inactive)
REMARK    1  A    between atoms: O_1  and  C_22 
REMARK    2  A    between atoms: C_6  and  C_13 
REMARK    3  A    between atoms: C_13  and  C_21 
REMARK    4  A    between atoms: C_21  and  C_24 
REMARK    5  A    between atoms: C_24  and  C_25 
REMARK    6  A    between atoms: C_25  and  C_26 
ROOT
ATOM      1  C   UNL d   1     134.118 115.878 158.187  0.00  0.00     0.000 C 
ATOM      2  C   UNL d   1     133.868 117.161 159.020  0.00  0.00     0.000 C 
ATOM      3  C   UNL d   1     133.999 118.433 158.179  0.00  0.00     0.005 C 
ATOM      4  C   UNL d   1     132.959 118.410 157.023  0.00  0.00     0.004 C 
ATOM      5  C   UNL d   1     134.090 114.784 159.302  0.00  0.00     0.000 C 
ATOM      6  C   UNL d   1     132.938 115.812 157.197  0.00  0.00     0.000 C 
ATOM      7  C   UNL d   1     133.145 119.655 156.064  0.00  0.00     0.015 C 
ATOM      8  C   UNL d   1     134.784 116.999 160.219  0.00  0.00     0.000 C 
ATOM      9  C   UNL d   1     132.889 117.045 156.279  0.00  0.00     0.000 C 
ATOM     10  C   UNL d   1     134.681 115.508 160.550  0.00  0.00     0.000 C 
ATOM     11  C   UNL d   1     133.825 119.701 159.027  0.00  0.00     0.025 C 
ATOM     12  C   UNL d   1     135.480 115.913 157.449  0.00  0.00     0.000 C 
ATOM     13  C   UNL d   1     133.397 120.933 156.877  0.00  0.00    -0.047 C 
ATOM     14  C   UNL d   1     131.838 119.837 155.238  0.00  0.00     0.006 C 
ATOM     15  C   UNL d   1     133.673 120.933 158.191  0.00  0.00    -0.035 C 
ATOM     16  C   UNL d   1     134.338 119.447 155.100  0.00  0.00     0.004 C 
ATOM     17  C   UNL d   1     133.307 122.244 156.120  0.00  0.00     0.051 C 
ATOM     18  C   UNL d   1     131.776 121.142 154.443  0.00  0.00     0.030 C 
ATOM     19  C   UNL d   1     132.000 122.358 155.339  0.00  0.00     0.115 C 
ENDROOT
BRANCH   5  20
ATOM     20  C   UNL d   1     134.781 113.399 159.059  0.00  0.00     0.000 C 
ATOM     21  C   UNL d   1     133.797 112.313 158.609  0.00  0.00     0.000 C 
BRANCH  20  22
ATOM     22  C   UNL d   1     135.533 112.963 160.350  0.00  0.00     0.000 C 
BRANCH  22  23
ATOM     23  C   UNL d   1     137.032 112.646 160.236  0.00  0.00     0.000 C 
BRANCH  23  24
ATOM     24  C   UNL d   1     137.809 113.419 159.162  0.00  0.00     0.000 C 
BRANCH  24  25
ATOM     25  C   UNL d   1     138.226 114.849 159.550  0.00  0.00     0.000 C 
ATOM     26  C   UNL d   1     138.892 114.896 160.928  0.00  0.00     0.000 C 
ATOM     27  C   UNL d   1     139.177 115.423 158.496  0.00  0.00     0.000 C 
ENDBRANCH  24  25
ENDBRANCH  23  24
ENDBRANCH  22  23
ENDBRANCH  20  22
ENDBRANCH   5  20
BRANCH  19  28
ATOM     28  O   UNL d   1     132.045 123.535 154.535  0.00  0.00    -0.385 OA
ATOM     29  H   UNL d   1     132.911 123.550 154.087  0.00  0.00     0.210 HD
ENDBRANCH  19  28
TORSDOF 6
ENDMDL
MODEL 20
REMARK VINA RESULT:    -7.252     55.596     59.658
REMARK INTER + INTRA:         -10.307
REMARK INTER:                  -8.930
REMARK INTRA:                  -1.377
REMARK UNBOUND:                -0.723
REMARK  6 active torsions:
REMARK  status: ('A' for Active; 'I' for Inactive)
REMARK    1  A    between atoms: O_1  and  C_22 
REMARK    2  A    between atoms: C_6  and  C_13 
REMARK    3  A    between atoms: C_13  and  C_21 
REMARK    4  A    between atoms: C_21  and  C_24 
REMARK    5  A    between atoms: C_24  and  C_25 
REMARK    6  A    between atoms: C_25  and  C_26 
ROOT
ATOM      1  C   UNL d   1     157.592  98.213 118.255  0.00  0.00     0.000 C 
ATOM      2  C   UNL d   1     156.259  98.764 117.687  0.00  0.00     0.000 C 
ATOM      3  C   UNL d   1     155.288  99.184 118.792  0.00  0.00     0.005 C 
ATOM      4  C   UNL d   1     155.930 100.305 119.660  0.00  0.00     0.004 C 
ATOM      5  C   UNL d   1     158.295  97.718 116.951  0.00  0.00     0.000 C 
ATOM      6  C   UNL d   1     158.269  99.424 118.926  0.00  0.00     0.000 C 
ATOM      7  C   UNL d   1     155.000 100.681 120.883  0.00  0.00     0.015 C 
ATOM      8  C   UNL d   1     155.811  97.692 116.711  0.00  0.00     0.000 C 
ATOM      9  C   UNL d   1     157.406 100.011 120.056  0.00  0.00     0.000 C 
ATOM     10  C   UNL d   1     157.116  97.241 116.049  0.00  0.00     0.000 C 
ATOM     11  C   UNL d   1     153.943  99.658 118.223  0.00  0.00     0.025 C 
ATOM     12  C   UNL d   1     157.368  97.056 119.262  0.00  0.00     0.000 C 
ATOM     13  C   UNL d   1     153.531 100.766 120.443  0.00  0.00    -0.047 C 
ATOM     14  C   UNL d   1     155.441 102.073 121.424  0.00  0.00     0.006 C 
ATOM     15  C   UNL d   1     153.089 100.329 119.252  0.00  0.00    -0.035 C 
ATOM     16  C   UNL d   1     155.109  99.631 122.016  0.00  0.00     0.004 C 
ATOM     17  C   UNL d   1     152.565 101.394 121.428  0.00  0.00     0.051 C 
ATOM     18  C   UNL d   1     154.482 102.678 122.450  0.00  0.00     0.030 C 
ATOM     19  C   UNL d   1     153.056 102.757 121.911  0.00  0.00     0.115 C 
ENDROOT
BRANCH   5  20
ATOM     20  C   UNL d   1     159.430  96.641 117.032  0.00  0.00     0.000 C 
ATOM     21  C   UNL d   1     160.835  97.247 116.929  0.00  0.00     0.000 C 
BRANCH  20  22
ATOM     22  C   UNL d   1     159.207  95.571 115.924  0.00  0.00     0.000 C 
BRANCH  22  23
ATOM     23  C   UNL d   1     159.611  94.121 116.234  0.00  0.00     0.000 C 
BRANCH  23  24
ATOM     24  C   UNL d   1     158.510  93.064 116.084  0.00  0.00     0.000 C 
BRANCH  24  25
ATOM     25  C   UNL d   1     157.470  93.028 117.218  0.00  0.00     0.000 C 
ATOM     26  C   UNL d   1     158.058  93.508 118.548  0.00  0.00     0.000 C 
ATOM     27  C   UNL d   1     156.258  93.887 116.848  0.00  0.00     0.000 C 
ENDBRANCH  24  25
ENDBRANCH  23  24
ENDBRANCH  22  23
ENDBRANCH  20  22
ENDBRANCH   5  20
BRANCH  19  28
ATOM     28  O   UNL d   1     152.186 103.221 122.941  0.00  0.00    -0.385 OA
ATOM     29  H   UNL d   1     151.844 104.091 122.666  0.00  0.00     0.210 HD
ENDBRANCH  19  28
TORSDOF 6
ENDMDL
