REMARK  6 active torsions:
REMARK  status: ('A' for Active; 'I' for Inactive)
REMARK    1  A    between atoms: O_1  and  C_22 
REMARK    2  A    between atoms: C_6  and  C_13 
REMARK    3  A    between atoms: C_13  and  C_21 
REMARK    4  A    between atoms: C_21  and  C_24 
REMARK    5  A    between atoms: C_24  and  C_25 
REMARK    6  A    between atoms: C_25  and  C_26 
ROOT
ATOM      1  C   UNL d   1     135.150 148.906 183.547  0.00  0.00     0.000 C 
ATOM      2  C   UNL d   1     135.820 150.249 183.162  0.00  0.00     0.000 C 
ATOM      3  C   UNL d   1     136.124 150.338 181.665  0.00  0.00     0.005 C 
ATOM      4  C   UNL d   1     134.803 150.219 180.851  0.00  0.00     0.004 C 
ATOM      5  C   UNL d   1     135.115 149.021 185.104  0.00  0.00     0.000 C 
ATOM      6  C   UNL d   1     133.765 148.945 182.872  0.00  0.00     0.000 C 
ATOM      7  C   UNL d   1     135.093 150.189 179.296  0.00  0.00     0.015 C 
ATOM      8  C   UNL d   1     136.978 150.369 184.135  0.00  0.00     0.000 C 
ATOM      9  C   UNL d   1     133.874 149.071 181.343  0.00  0.00     0.000 C 
ATOM     10  C   UNL d   1     136.401 149.833 185.447  0.00  0.00     0.000 C 
ATOM     11  C   UNL d   1     136.855 151.639 181.304  0.00  0.00     0.025 C 
ATOM     12  C   UNL d   1     135.977 147.682 183.079  0.00  0.00     0.000 C 
ATOM     13  C   UNL d   1     136.161 151.226 178.923  0.00  0.00    -0.047 C 
ATOM     14  C   UNL d   1     133.774 150.536 178.545  0.00  0.00     0.006 C 
ATOM     15  C   UNL d   1     136.913 151.874 179.827  0.00  0.00    -0.035 C 
ATOM     16  C   UNL d   1     135.590 148.793 178.845  0.00  0.00     0.004 C 
ATOM     17  C   UNL d   1     136.335 151.515 177.444  0.00  0.00     0.051 C 
ATOM     18  C   UNL d   1     133.953 150.782 177.046  0.00  0.00     0.030 C 
ATOM     19  C   UNL d   1     135.005 151.854 176.774  0.00  0.00     0.115 C 
ENDROOT
BRANCH   5  20
ATOM     20  C   UNL d   1     134.998 147.729 185.984  0.00  0.00     0.000 C 
ATOM     21  C   UNL d   1     136.268 146.870 185.952  0.00  0.00     0.000 C 
BRANCH  20  22
ATOM     22  C   UNL d   1     133.761 146.903 185.527  0.00  0.00     0.000 C 
BRANCH  22  23
ATOM     23  C   UNL d   1     133.934 145.387 185.351  0.00  0.00     0.000 C 
BRANCH  23  24
ATOM     24  C   UNL d   1     133.334 144.778 184.078  0.00  0.00     0.000 C 
BRANCH  24  25
ATOM     25  C   UNL d   1     133.585 145.572 182.784  0.00  0.00     0.000 C 
ATOM     26  C   UNL d   1     134.594 144.871 181.870  0.00  0.00     0.000 C 
ATOM     27  C   UNL d   1     132.268 145.785 182.033  0.00  0.00     0.000 C 
ENDBRANCH  24  25
ENDBRANCH  23  24
ENDBRANCH  22  23
ENDBRANCH  20  22
ENDBRANCH   5  20
BRANCH  19  28
ATOM     28  O   UNL d   1     135.214 151.964 175.367  0.00  0.00    -0.385 OA
ATOM     29  H   UNL d   1     135.355 152.908 175.166  0.00  0.00     0.210 HD
ENDBRANCH  19  28
TORSDOF 6
