REMARK  6 active torsions:
REMARK  status: ('A' for Active; 'I' for Inactive)
REMARK    1  A    between atoms: O_1  and  C_22 
REMARK    2  A    between atoms: C_6  and  C_13 
REMARK    3  A    between atoms: C_13  and  C_21 
REMARK    4  A    between atoms: C_21  and  C_24 
REMARK    5  A    between atoms: C_24  and  C_25 
REMARK    6  A    between atoms: C_25  and  C_26 
ROOT
ATOM      1  C   UNL d   1     129.044 128.657 159.680  0.00  0.00     0.000 C 
ATOM      2  C   UNL d   1     127.556 128.269 159.483  0.00  0.00     0.000 C 
ATOM      3  C   UNL d   1     126.738 128.434 160.765  0.00  0.00     0.005 C 
ATOM      4  C   UNL d   1     126.782 129.917 161.232  0.00  0.00     0.004 C 
ATOM      5  C   UNL d   1     129.650 128.239 158.303  0.00  0.00     0.000 C 
ATOM      6  C   UNL d   1     129.028 130.176 159.938  0.00  0.00     0.000 C 
ATOM      7  C   UNL d   1     126.044 130.101 162.619  0.00  0.00     0.015 C 
ATOM      8  C   UNL d   1     127.621 126.892 158.848  0.00  0.00     0.000 C 
ATOM      9  C   UNL d   1     128.208 130.538 161.188  0.00  0.00     0.000 C 
ATOM     10  C   UNL d   1     128.805 126.998 157.884  0.00  0.00     0.000 C 
ATOM     11  C   UNL d   1     125.284 127.977 160.581  0.00  0.00     0.025 C 
ATOM     12  C   UNL d   1     129.699 127.887 160.855  0.00  0.00     0.000 C 
ATOM     13  C   UNL d   1     124.734 129.301 162.647  0.00  0.00    -0.047 C 
ATOM     14  C   UNL d   1     125.713 131.611 162.802  0.00  0.00     0.006 C 
ATOM     15  C   UNL d   1     124.406 128.384 161.723  0.00  0.00    -0.035 C 
ATOM     16  C   UNL d   1     126.932 129.623 163.795  0.00  0.00     0.004 C 
ATOM     17  C   UNL d   1     123.782 129.604 163.788  0.00  0.00     0.051 C 
ATOM     18  C   UNL d   1     124.787 131.910 163.983  0.00  0.00     0.030 C 
ATOM     19  C   UNL d   1     123.496 131.100 163.904  0.00  0.00     0.115 C 
ENDROOT
BRANCH   5  20
ATOM     20  C   UNL d   1     131.187 127.959 158.175  0.00  0.00     0.000 C 
ATOM     21  C   UNL d   1     132.024 128.760 159.180  0.00  0.00     0.000 C 
BRANCH  20  22
ATOM     22  C   UNL d   1     131.645 128.251 156.717  0.00  0.00     0.000 C 
BRANCH  22  23
ATOM     23  C   UNL d   1     132.055 129.690 156.368  0.00  0.00     0.000 C 
BRANCH  23  24
ATOM     24  C   UNL d   1     131.369 130.315 155.147  0.00  0.00     0.000 C 
BRANCH  24  25
ATOM     25  C   UNL d   1     130.398 131.470 155.453  0.00  0.00     0.000 C 
ATOM     26  C   UNL d   1     128.950 130.985 155.562  0.00  0.00     0.000 C 
ATOM     27  C   UNL d   1     130.809 132.171 156.751  0.00  0.00     0.000 C 
ENDBRANCH  24  25
ENDBRANCH  23  24
ENDBRANCH  22  23
ENDBRANCH  20  22
ENDBRANCH   5  20
BRANCH  19  28
ATOM     28  O   UNL d   1     122.722 131.329 165.080  0.00  0.00    -0.385 OA
ATOM     29  H   UNL d   1     121.978 131.908 164.832  0.00  0.00     0.210 HD
ENDBRANCH  19  28
TORSDOF 6
