REMARK  6 active torsions:
REMARK  status: ('A' for Active; 'I' for Inactive)
REMARK    1  A    between atoms: O_1  and  C_22 
REMARK    2  A    between atoms: C_6  and  C_13 
REMARK    3  A    between atoms: C_13  and  C_21 
REMARK    4  A    between atoms: C_21  and  C_24 
REMARK    5  A    between atoms: C_24  and  C_25 
REMARK    6  A    between atoms: C_25  and  C_26 
ROOT
ATOM      1  C   UNL d   1      99.047 148.196 173.938  0.00  0.00     0.000 C 
ATOM      2  C   UNL d   1     100.144 147.191 173.499  0.00  0.00     0.000 C 
ATOM      3  C   UNL d   1      99.758 146.430 172.230  0.00  0.00     0.005 C 
ATOM      4  C   UNL d   1      99.540 147.433 171.060  0.00  0.00     0.004 C 
ATOM      5  C   UNL d   1      99.617 148.685 175.308  0.00  0.00     0.000 C 
ATOM      6  C   UNL d   1      99.028 149.270 172.833  0.00  0.00     0.000 C 
ATOM      7  C   UNL d   1      99.026 146.690 169.761  0.00  0.00     0.015 C 
ATOM      8  C   UNL d   1     100.425 146.389 174.756  0.00  0.00     0.000 C 
ATOM      9  C   UNL d   1      98.687 148.672 171.457  0.00  0.00     0.000 C 
ATOM     10  C   UNL d   1     100.359 147.435 175.872  0.00  0.00     0.000 C 
ATOM     11  C   UNL d   1     100.815 145.385 171.844  0.00  0.00     0.025 C 
ATOM     12  C   UNL d   1      97.663 147.519 174.100  0.00  0.00     0.000 C 
ATOM     13  C   UNL d   1      99.794 145.378 169.546  0.00  0.00    -0.047 C 
ATOM     14  C   UNL d   1      99.270 147.619 168.536  0.00  0.00     0.006 C 
ATOM     15  C   UNL d   1     100.599 144.830 170.471  0.00  0.00    -0.035 C 
ATOM     16  C   UNL d   1      97.517 146.359 169.864  0.00  0.00     0.004 C 
ATOM     17  C   UNL d   1      99.618 144.705 168.198  0.00  0.00     0.051 C 
ATOM     18  C   UNL d   1      99.046 146.943 167.183  0.00  0.00     0.030 C 
ATOM     19  C   UNL d   1      99.879 145.671 167.045  0.00  0.00     0.115 C 
ENDROOT
BRANCH   5  20
ATOM     20  C   UNL d   1      98.659 149.316 176.376  0.00  0.00     0.000 C 
ATOM     21  C   UNL d   1      97.493 150.089 175.747  0.00  0.00     0.000 C 
BRANCH  20  22
ATOM     22  C   UNL d   1      99.480 150.232 177.329  0.00  0.00     0.000 C 
BRANCH  22  23
ATOM     23  C   UNL d   1      99.836 151.643 176.838  0.00  0.00     0.000 C 
BRANCH  23  24
ATOM     24  C   UNL d   1      98.998 152.794 177.409  0.00  0.00     0.000 C 
BRANCH  24  25
ATOM     25  C   UNL d   1      99.396 153.263 178.820  0.00  0.00     0.000 C 
ATOM     26  C   UNL d   1     100.517 154.307 178.780  0.00  0.00     0.000 C 
ATOM     27  C   UNL d   1      98.178 153.841 179.546  0.00  0.00     0.000 C 
ENDBRANCH  24  25
ENDBRANCH  23  24
ENDBRANCH  22  23
ENDBRANCH  20  22
ENDBRANCH   5  20
BRANCH  19  28
ATOM     28  O   UNL d   1      99.550 145.021 165.819  0.00  0.00    -0.385 OA
ATOM     29  H   UNL d   1     100.315 144.473 165.563  0.00  0.00     0.210 HD
ENDBRANCH  19  28
TORSDOF 6
