REMARK  6 active torsions:
REMARK  status: ('A' for Active; 'I' for Inactive)
REMARK    1  A    between atoms: O_1  and  C_22 
REMARK    2  A    between atoms: C_6  and  C_13 
REMARK    3  A    between atoms: C_13  and  C_21 
REMARK    4  A    between atoms: C_21  and  C_24 
REMARK    5  A    between atoms: C_24  and  C_25 
REMARK    6  A    between atoms: C_25  and  C_26 
ROOT
ATOM      1  C   UNL d   1     127.795 131.370 158.702  0.00  0.00     0.000 C 
ATOM      2  C   UNL d   1     127.312 132.492 159.656  0.00  0.00     0.000 C 
ATOM      3  C   UNL d   1     126.473 131.947 160.813  0.00  0.00     0.005 C 
ATOM      4  C   UNL d   1     127.318 130.946 161.652  0.00  0.00     0.004 C 
ATOM      5  C   UNL d   1     128.457 132.207 157.562  0.00  0.00     0.000 C 
ATOM      6  C   UNL d   1     128.784 130.535 159.539  0.00  0.00     0.000 C 
ATOM      7  C   UNL d   1     126.444 130.274 162.788  0.00  0.00     0.015 C 
ATOM      8  C   UNL d   1     126.675 133.508 158.727  0.00  0.00     0.000 C 
ATOM      9  C   UNL d   1     128.114 129.929 160.784  0.00  0.00     0.000 C 
ATOM     10  C   UNL d   1     127.599 133.507 157.507  0.00  0.00     0.000 C 
ATOM     11  C   UNL d   1     125.936 133.071 161.711  0.00  0.00     0.025 C 
ATOM     12  C   UNL d   1     126.624 130.504 158.174  0.00  0.00     0.000 C 
ATOM     13  C   UNL d   1     125.547 131.317 163.470  0.00  0.00    -0.047 C 
ATOM     14  C   UNL d   1     127.406 129.669 163.852  0.00  0.00     0.006 C 
ATOM     15  C   UNL d   1     125.354 132.556 162.990  0.00  0.00    -0.035 C 
ATOM     16  C   UNL d   1     125.542 129.155 162.214  0.00  0.00     0.004 C 
ATOM     17  C   UNL d   1     124.871 130.888 164.758  0.00  0.00     0.051 C 
ATOM     18  C   UNL d   1     126.709 129.199 165.130  0.00  0.00     0.030 C 
ATOM     19  C   UNL d   1     125.873 130.311 165.757  0.00  0.00     0.115 C 
ENDROOT
BRANCH   5  20
ATOM     20  C   UNL d   1     128.647 131.581 156.137  0.00  0.00     0.000 C 
ATOM     21  C   UNL d   1     129.404 130.248 156.168  0.00  0.00     0.000 C 
BRANCH  20  22
ATOM     22  C   UNL d   1     129.368 132.606 155.214  0.00  0.00     0.000 C 
BRANCH  22  23
ATOM     23  C   UNL d   1     128.502 133.472 154.288  0.00  0.00     0.000 C 
BRANCH  23  24
ATOM     24  C   UNL d   1     128.782 133.349 152.785  0.00  0.00     0.000 C 
BRANCH  24  25
ATOM     25  C   UNL d   1     129.393 134.597 152.122  0.00  0.00     0.000 C 
ATOM     26  C   UNL d   1     129.311 134.530 150.594  0.00  0.00     0.000 C 
ATOM     27  C   UNL d   1     128.684 135.858 152.624  0.00  0.00     0.000 C 
ENDBRANCH  24  25
ENDBRANCH  23  24
ENDBRANCH  22  23
ENDBRANCH  20  22
ENDBRANCH   5  20
BRANCH  19  28
ATOM     28  O   UNL d   1     125.158 129.791 166.876  0.00  0.00    -0.385 OA
ATOM     29  H   UNL d   1     125.638 130.059 167.680  0.00  0.00     0.210 HD
ENDBRANCH  19  28
TORSDOF 6
