REMARK  6 active torsions:
REMARK  status: ('A' for Active; 'I' for Inactive)
REMARK    1  A    between atoms: O_1  and  C_22 
REMARK    2  A    between atoms: C_6  and  C_13 
REMARK    3  A    between atoms: C_13  and  C_21 
REMARK    4  A    between atoms: C_21  and  C_24 
REMARK    5  A    between atoms: C_24  and  C_25 
REMARK    6  A    between atoms: C_25  and  C_26 
ROOT
ATOM      1  C   UNL d   1     113.541 148.916 205.503  0.00  0.00     0.000 C 
ATOM      2  C   UNL d   1     114.272 149.634 206.666  0.00  0.00     0.000 C 
ATOM      3  C   UNL d   1     113.962 149.003 208.024  0.00  0.00     0.005 C 
ATOM      4  C   UNL d   1     114.413 147.514 208.029  0.00  0.00     0.004 C 
ATOM      5  C   UNL d   1     113.895 149.850 204.301  0.00  0.00     0.000 C 
ATOM      6  C   UNL d   1     114.181 147.516 205.435  0.00  0.00     0.000 C 
ATOM      7  C   UNL d   1     113.999 146.798 209.378  0.00  0.00     0.015 C 
ATOM      8  C   UNL d   1     113.929 151.098 206.462  0.00  0.00     0.000 C 
ATOM      9  C   UNL d   1     113.995 146.736 206.748  0.00  0.00     0.000 C 
ATOM     10  C   UNL d   1     113.975 151.269 204.942  0.00  0.00     0.000 C 
ATOM     11  C   UNL d   1     114.630 149.765 209.177  0.00  0.00     0.025 C 
ATOM     12  C   UNL d   1     112.011 148.833 205.734  0.00  0.00     0.000 C 
ATOM     13  C   UNL d   1     114.270 147.710 210.582  0.00  0.00    -0.047 C 
ATOM     14  C   UNL d   1     114.853 145.505 209.528  0.00  0.00     0.006 C 
ATOM     15  C   UNL d   1     114.571 149.015 210.471  0.00  0.00    -0.035 C 
ATOM     16  C   UNL d   1     112.496 146.424 209.378  0.00  0.00     0.004 C 
ATOM     17  C   UNL d   1     114.198 147.062 211.952  0.00  0.00     0.051 C 
ATOM     18  C   UNL d   1     114.739 144.834 210.898  0.00  0.00     0.030 C 
ATOM     19  C   UNL d   1     115.063 145.806 212.029  0.00  0.00     0.115 C 
ENDROOT
BRANCH   5  20
ATOM     20  C   UNL d   1     112.999 149.847 203.015  0.00  0.00     0.000 C 
ATOM     21  C   UNL d   1     112.173 148.564 202.867  0.00  0.00     0.000 C 
BRANCH  20  22
ATOM     22  C   UNL d   1     113.894 150.076 201.762  0.00  0.00     0.000 C 
BRANCH  22  23
ATOM     23  C   UNL d   1     113.257 149.875 200.379  0.00  0.00     0.000 C 
BRANCH  23  24
ATOM     24  C   UNL d   1     112.105 150.822 200.018  0.00  0.00     0.000 C 
BRANCH  24  25
ATOM     25  C   UNL d   1     111.804 150.951 198.514  0.00  0.00     0.000 C 
ATOM     26  C   UNL d   1     111.668 152.415 198.083  0.00  0.00     0.000 C 
ATOM     27  C   UNL d   1     112.904 150.271 197.696  0.00  0.00     0.000 C 
ENDBRANCH  24  25
ENDBRANCH  23  24
ENDBRANCH  22  23
ENDBRANCH  20  22
ENDBRANCH   5  20
BRANCH  19  28
ATOM     28  O   UNL d   1     114.833 145.167 213.283  0.00  0.00    -0.385 OA
ATOM     29  H   UNL d   1     114.845 145.857 213.971  0.00  0.00     0.210 HD
ENDBRANCH  19  28
TORSDOF 6
