REMARK  6 active torsions:
REMARK  status: ('A' for Active; 'I' for Inactive)
REMARK    1  A    between atoms: O_1  and  C_22 
REMARK    2  A    between atoms: C_6  and  C_13 
REMARK    3  A    between atoms: C_13  and  C_21 
REMARK    4  A    between atoms: C_21  and  C_24 
REMARK    5  A    between atoms: C_24  and  C_25 
REMARK    6  A    between atoms: C_25  and  C_26 
ROOT
ATOM      1  C   UNL d   1     133.109 119.520 156.039  0.00  0.00     0.000 C 
ATOM      2  C   UNL d   1     133.849 119.795 157.374  0.00  0.00     0.000 C 
ATOM      3  C   UNL d   1     133.731 118.627 158.354  0.00  0.00     0.005 C 
ATOM      4  C   UNL d   1     134.351 117.346 157.725  0.00  0.00     0.004 C 
ATOM      5  C   UNL d   1     133.249 120.903 155.327  0.00  0.00     0.000 C 
ATOM      6  C   UNL d   1     133.899 118.376 155.375  0.00  0.00     0.000 C 
ATOM      7  C   UNL d   1     134.140 116.090 158.664  0.00  0.00     0.015 C 
ATOM      8  C   UNL d   1     133.322 121.150 157.808  0.00  0.00     0.000 C 
ATOM      9  C   UNL d   1     133.918 117.109 156.248  0.00  0.00     0.000 C 
ATOM     10  C   UNL d   1     133.218 121.932 156.497  0.00  0.00     0.000 C 
ATOM     11  C   UNL d   1     134.402 118.936 159.699  0.00  0.00     0.025 C 
ATOM     12  C   UNL d   1     131.625 119.135 156.260  0.00  0.00     0.000 C 
ATOM     13  C   UNL d   1     134.405 116.459 160.130  0.00  0.00    -0.047 C 
ATOM     14  C   UNL d   1     135.148 114.984 158.236  0.00  0.00     0.006 C 
ATOM     15  C   UNL d   1     134.541 117.722 160.564  0.00  0.00    -0.035 C 
ATOM     16  C   UNL d   1     132.696 115.542 158.552  0.00  0.00     0.004 C 
ATOM     17  C   UNL d   1     134.525 115.304 161.106  0.00  0.00     0.051 C 
ATOM     18  C   UNL d   1     135.229 113.802 159.204  0.00  0.00     0.030 C 
ATOM     19  C   UNL d   1     135.534 114.262 160.628  0.00  0.00     0.115 C 
ENDROOT
BRANCH   5  20
ATOM     20  C   UNL d   1     132.253 121.301 154.183  0.00  0.00     0.000 C 
ATOM     21  C   UNL d   1     132.965 121.691 152.882  0.00  0.00     0.000 C 
BRANCH  20  22
ATOM     22  C   UNL d   1     131.333 122.454 154.678  0.00  0.00     0.000 C 
BRANCH  22  23
ATOM     23  C   UNL d   1     131.240 123.720 153.812  0.00  0.00     0.000 C 
BRANCH  23  24
ATOM     24  C   UNL d   1     132.183 124.870 154.187  0.00  0.00     0.000 C 
BRANCH  24  25
ATOM     25  C   UNL d   1     131.695 125.779 155.329  0.00  0.00     0.000 C 
ATOM     26  C   UNL d   1     131.088 124.973 156.482  0.00  0.00     0.000 C 
ATOM     27  C   UNL d   1     132.851 126.636 155.850  0.00  0.00     0.000 C 
ENDBRANCH  24  25
ENDBRANCH  23  24
ENDBRANCH  22  23
ENDBRANCH  20  22
ENDBRANCH   5  20
BRANCH  19  28
ATOM     28  O   UNL d   1     135.487 113.140 161.507  0.00  0.00    -0.385 OA
ATOM     29  H   UNL d   1     134.561 112.839 161.547  0.00  0.00     0.210 HD
ENDBRANCH  19  28
TORSDOF 6
