REMARK  6 active torsions:
REMARK  status: ('A' for Active; 'I' for Inactive)
REMARK    1  A    between atoms: O_1  and  C_22 
REMARK    2  A    between atoms: C_6  and  C_13 
REMARK    3  A    between atoms: C_13  and  C_21 
REMARK    4  A    between atoms: C_21  and  C_24 
REMARK    5  A    between atoms: C_24  and  C_25 
REMARK    6  A    between atoms: C_25  and  C_26 
ROOT
ATOM      1  C   UNL d   1     128.493 131.812 157.817  0.00  0.00     0.000 C 
ATOM      2  C   UNL d   1     128.064 132.637 159.057  0.00  0.00     0.000 C 
ATOM      3  C   UNL d   1     127.133 131.852 159.982  0.00  0.00     0.005 C 
ATOM      4  C   UNL d   1     127.853 130.572 160.493  0.00  0.00     0.004 C 
ATOM      5  C   UNL d   1     129.272 132.887 156.993  0.00  0.00     0.000 C 
ATOM      6  C   UNL d   1     129.371 130.677 158.379  0.00  0.00     0.000 C 
ATOM      7  C   UNL d   1     126.878 129.676 161.359  0.00  0.00     0.015 C 
ATOM      8  C   UNL d   1     127.555 133.939 158.467  0.00  0.00     0.000 C 
ATOM      9  C   UNL d   1     128.599 129.791 159.372  0.00  0.00     0.000 C 
ATOM     10  C   UNL d   1     128.528 134.218 157.319  0.00  0.00     0.000 C 
ATOM     11  C   UNL d   1     126.653 132.701 161.168  0.00  0.00     0.025 C 
ATOM     12  C   UNL d   1     127.278 131.256 157.033  0.00  0.00     0.000 C 
ATOM     13  C   UNL d   1     126.042 130.545 162.309  0.00  0.00    -0.047 C 
ATOM     14  C   UNL d   1     127.739 128.693 162.207  0.00  0.00     0.006 C 
ATOM     15  C   UNL d   1     125.975 131.884 162.222  0.00  0.00    -0.035 C 
ATOM     16  C   UNL d   1     125.911 128.868 160.459  0.00  0.00     0.004 C 
ATOM     17  C   UNL d   1     125.278 129.815 163.397  0.00  0.00     0.051 C 
ATOM     18  C   UNL d   1     126.950 127.929 163.272  0.00  0.00     0.030 C 
ATOM     19  C   UNL d   1     126.183 128.876 164.191  0.00  0.00     0.115 C 
ENDROOT
BRANCH   5  20
ATOM     20  C   UNL d   1     129.470 132.700 155.450  0.00  0.00     0.000 C 
ATOM     21  C   UNL d   1     128.248 133.141 154.635  0.00  0.00     0.000 C 
BRANCH  20  22
ATOM     22  C   UNL d   1     129.828 131.216 155.151  0.00  0.00     0.000 C 
BRANCH  22  23
ATOM     23  C   UNL d   1     131.306 130.804 155.227  0.00  0.00     0.000 C 
BRANCH  23  24
ATOM     24  C   UNL d   1     131.893 130.642 156.634  0.00  0.00     0.000 C 
BRANCH  24  25
ATOM     25  C   UNL d   1     132.767 129.392 156.845  0.00  0.00     0.000 C 
ATOM     26  C   UNL d   1     132.535 128.758 158.220  0.00  0.00     0.000 C 
ATOM     27  C   UNL d   1     132.487 128.363 155.747  0.00  0.00     0.000 C 
ENDBRANCH  24  25
ENDBRANCH  23  24
ENDBRANCH  22  23
ENDBRANCH  20  22
ENDBRANCH   5  20
BRANCH  19  28
ATOM     28  O   UNL d   1     125.379 128.114 165.089  0.00  0.00    -0.385 OA
ATOM     29  H   UNL d   1     125.623 128.377 165.996  0.00  0.00     0.210 HD
ENDBRANCH  19  28
TORSDOF 6
