REMARK  6 active torsions:
REMARK  status: ('A' for Active; 'I' for Inactive)
REMARK    1  A    between atoms: O_1  and  C_22 
REMARK    2  A    between atoms: C_6  and  C_13 
REMARK    3  A    between atoms: C_13  and  C_21 
REMARK    4  A    between atoms: C_21  and  C_24 
REMARK    5  A    between atoms: C_24  and  C_25 
REMARK    6  A    between atoms: C_25  and  C_26 
ROOT
ATOM      1  C   UNL d   1     113.737 149.115 205.351  0.00  0.00     0.000 C 
ATOM      2  C   UNL d   1     113.807 149.805 206.737  0.00  0.00     0.000 C 
ATOM      3  C   UNL d   1     113.401 148.866 207.874  0.00  0.00     0.005 C 
ATOM      4  C   UNL d   1     114.356 147.638 207.910  0.00  0.00     0.004 C 
ATOM      5  C   UNL d   1     114.027 150.319 204.399  0.00  0.00     0.000 C 
ATOM      6  C   UNL d   1     114.845 148.044 205.384  0.00  0.00     0.000 C 
ATOM      7  C   UNL d   1     113.893 146.588 208.999  0.00  0.00     0.015 C 
ATOM      8  C   UNL d   1     113.012 151.083 206.546  0.00  0.00     0.000 C 
ATOM      9  C   UNL d   1     114.619 147.017 206.507  0.00  0.00     0.000 C 
ATOM     10  C   UNL d   1     113.397 151.539 205.137  0.00  0.00     0.000 C 
ATOM     11  C   UNL d   1     113.401 149.578 209.234  0.00  0.00     0.025 C 
ATOM     12  C   UNL d   1     112.347 148.487 205.078  0.00  0.00     0.000 C 
ATOM     13  C   UNL d   1     113.470 147.298 210.292  0.00  0.00    -0.047 C 
ATOM     14  C   UNL d   1     115.093 145.648 209.314  0.00  0.00     0.006 C 
ATOM     15  C   UNL d   1     113.281 148.625 210.381  0.00  0.00    -0.035 C 
ATOM     16  C   UNL d   1     112.697 145.744 208.493  0.00  0.00     0.004 C 
ATOM     17  C   UNL d   1     113.279 146.421 211.514  0.00  0.00     0.051 C 
ATOM     18  C   UNL d   1     114.873 144.735 210.522  0.00  0.00     0.030 C 
ATOM     19  C   UNL d   1     114.495 145.532 211.767  0.00  0.00     0.115 C 
ENDROOT
BRANCH   5  20
ATOM     20  C   UNL d   1     113.578 150.258 202.898  0.00  0.00     0.000 C 
ATOM     21  C   UNL d   1     112.184 150.855 202.669  0.00  0.00     0.000 C 
BRANCH  20  22
ATOM     22  C   UNL d   1     113.637 148.784 202.401  0.00  0.00     0.000 C 
BRANCH  22  23
ATOM     23  C   UNL d   1     112.470 148.268 201.546  0.00  0.00     0.000 C 
BRANCH  23  24
ATOM     24  C   UNL d   1     112.835 147.703 200.168  0.00  0.00     0.000 C 
BRANCH  24  25
ATOM     25  C   UNL d   1     112.147 148.384 198.972  0.00  0.00     0.000 C 
ATOM     26  C   UNL d   1     110.906 149.175 199.400  0.00  0.00     0.000 C 
ATOM     27  C   UNL d   1     113.131 149.314 198.258  0.00  0.00     0.000 C 
ENDBRANCH  24  25
ENDBRANCH  23  24
ENDBRANCH  22  23
ENDBRANCH  20  22
ENDBRANCH   5  20
BRANCH  19  28
ATOM     28  O   UNL d   1     114.192 144.630 212.831  0.00  0.00    -0.385 OA
ATOM     29  H   UNL d   1     115.012 144.490 213.338  0.00  0.00     0.210 HD
ENDBRANCH  19  28
TORSDOF 6
