MODEL 1
REMARK VINA RESULT:    -9.934      0.000      0.000
REMARK INTER + INTRA:         -14.674
REMARK INTER:                 -13.129
REMARK INTRA:                  -1.546
REMARK UNBOUND:                -1.546
REMARK  6 active torsions:
REMARK  status: ('A' for Active; 'I' for Inactive)
REMARK    1  A    between atoms: O_1  and  C_22 
REMARK    2  A    between atoms: C_6  and  C_13 
REMARK    3  A    between atoms: C_13  and  C_21 
REMARK    4  A    between atoms: C_21  and  C_24 
REMARK    5  A    between atoms: C_24  and  C_25 
REMARK    6  A    between atoms: C_25  and  C_26 
ROOT
ATOM      1  C   UNL d   1     114.185 148.584 206.286  0.00  0.00     0.000 C 
ATOM      2  C   UNL d   1     114.872 147.847 205.108  0.00  0.00     0.000 C 
ATOM      3  C   UNL d   1     114.015 147.853 203.842  0.00  0.00     0.005 C 
ATOM      4  C   UNL d   1     113.749 149.318 203.391  0.00  0.00     0.004 C 
ATOM      5  C   UNL d   1     115.178 148.279 207.453  0.00  0.00     0.000 C 
ATOM      6  C   UNL d   1     114.138 150.063 205.857  0.00  0.00     0.000 C 
ATOM      7  C   UNL d   1     112.767 149.364 202.152  0.00  0.00     0.015 C 
ATOM      8  C   UNL d   1     115.266 146.506 205.699  0.00  0.00     0.000 C 
ATOM      9  C   UNL d   1     113.334 150.259 204.560  0.00  0.00     0.000 C 
ATOM     10  C   UNL d   1     115.728 146.860 207.115  0.00  0.00     0.000 C 
ATOM     11  C   UNL d   1     114.669 147.058 202.702  0.00  0.00     0.025 C 
ATOM     12  C   UNL d   1     112.768 148.030 206.578  0.00  0.00     0.000 C 
ATOM     13  C   UNL d   1     113.131 148.277 201.130  0.00  0.00    -0.047 C 
ATOM     14  C   UNL d   1     112.904 150.757 201.470  0.00  0.00     0.006 C 
ATOM     15  C   UNL d   1     113.993 147.279 201.386  0.00  0.00    -0.035 C 
ATOM     16  C   UNL d   1     111.298 149.148 202.590  0.00  0.00     0.004 C 
ATOM     17  C   UNL d   1     112.470 148.380 199.769  0.00  0.00     0.051 C 
ATOM     18  C   UNL d   1     112.197 150.864 200.118  0.00  0.00     0.030 C 
ATOM     19  C   UNL d   1     112.650 149.768 199.157  0.00  0.00     0.115 C 
ENDROOT
BRANCH   5  20
ATOM     20  C   UNL d   1     114.692 148.369 208.941  0.00  0.00     0.000 C 
ATOM     21  C   UNL d   1     115.150 149.655 209.640  0.00  0.00     0.000 C 
BRANCH  20  22
ATOM     22  C   UNL d   1     115.178 147.113 209.720  0.00  0.00     0.000 C 
BRANCH  22  23
ATOM     23  C   UNL d   1     114.126 146.283 210.472  0.00  0.00     0.000 C 
BRANCH  23  24
ATOM     24  C   UNL d   1     112.662 146.536 210.090  0.00  0.00     0.000 C 
BRANCH  24  25
ATOM     25  C   UNL d   1     112.031 145.483 209.161  0.00  0.00     0.000 C 
ATOM     26  C   UNL d   1     113.093 144.679 208.404  0.00  0.00     0.000 C 
ATOM     27  C   UNL d   1     111.142 144.534 209.969  0.00  0.00     0.000 C 
ENDBRANCH  24  25
ENDBRANCH  23  24
ENDBRANCH  22  23
ENDBRANCH  20  22
ENDBRANCH   5  20
BRANCH  19  28
ATOM     28  O   UNL d   1     111.882 149.843 197.958  0.00  0.00    -0.385 OA
ATOM     29  H   UNL d   1     110.983 149.531 198.166  0.00  0.00     0.210 HD
ENDBRANCH  19  28
TORSDOF 6
ENDMDL
MODEL 2
REMARK VINA RESULT:    -9.766      3.252      8.806
REMARK INTER + INTRA:         -14.452
REMARK INTER:                 -13.413
REMARK INTRA:                  -1.039
REMARK UNBOUND:                -1.546
REMARK  6 active torsions:
REMARK  status: ('A' for Active; 'I' for Inactive)
REMARK    1  A    between atoms: O_1  and  C_22 
REMARK    2  A    between atoms: C_6  and  C_13 
REMARK    3  A    between atoms: C_13  and  C_21 
REMARK    4  A    between atoms: C_21  and  C_24 
REMARK    5  A    between atoms: C_24  and  C_25 
REMARK    6  A    between atoms: C_25  and  C_26 
ROOT
ATOM      1  C   UNL d   1     113.615 148.730 204.775  0.00  0.00     0.000 C 
ATOM      2  C   UNL d   1     114.199 149.646 205.881  0.00  0.00     0.000 C 
ATOM      3  C   UNL d   1     113.893 149.127 207.286  0.00  0.00     0.005 C 
ATOM      4  C   UNL d   1     114.510 147.710 207.471  0.00  0.00     0.004 C 
ATOM      5  C   UNL d   1     113.922 149.570 203.494  0.00  0.00     0.000 C 
ATOM      6  C   UNL d   1     114.413 147.416 204.885  0.00  0.00     0.000 C 
ATOM      7  C   UNL d   1     114.112 147.093 208.872  0.00  0.00     0.015 C 
ATOM      8  C   UNL d   1     113.702 151.030 205.506  0.00  0.00     0.000 C 
ATOM      9  C   UNL d   1     114.250 146.760 206.266  0.00  0.00     0.000 C 
ATOM     10  C   UNL d   1     113.807 151.047 203.979  0.00  0.00     0.000 C 
ATOM     11  C   UNL d   1     114.410 150.078 208.375  0.00  0.00     0.025 C 
ATOM     12  C   UNL d   1     112.095 148.491 204.955  0.00  0.00     0.000 C 
ATOM     13  C   UNL d   1     114.216 148.152 209.980  0.00  0.00    -0.047 C 
ATOM     14  C   UNL d   1     115.099 145.934 209.195  0.00  0.00     0.006 C 
ATOM     15  C   UNL d   1     114.371 149.464 209.739  0.00  0.00    -0.035 C 
ATOM     16  C   UNL d   1     112.664 146.546 208.854  0.00  0.00     0.004 C 
ATOM     17  C   UNL d   1     114.147 147.645 211.408  0.00  0.00     0.051 C 
ATOM     18  C   UNL d   1     114.992 145.399 210.624  0.00  0.00     0.030 C 
ATOM     19  C   UNL d   1     115.145 146.515 211.655  0.00  0.00     0.115 C 
ENDROOT
BRANCH   5  20
ATOM     20  C   UNL d   1     113.099 149.328 202.182  0.00  0.00     0.000 C 
ATOM     21  C   UNL d   1     113.768 148.323 201.236  0.00  0.00     0.000 C 
BRANCH  20  22
ATOM     22  C   UNL d   1     112.861 150.688 201.463  0.00  0.00     0.000 C 
BRANCH  22  23
ATOM     23  C   UNL d   1     111.844 150.724 200.313  0.00  0.00     0.000 C 
BRANCH  23  24
ATOM     24  C   UNL d   1     112.349 151.280 198.976  0.00  0.00     0.000 C 
BRANCH  24  25
ATOM     25  C   UNL d   1     112.549 150.238 197.861  0.00  0.00     0.000 C 
ATOM     26  C   UNL d   1     114.032 149.989 197.570  0.00  0.00     0.000 C 
ATOM     27  C   UNL d   1     111.868 148.921 198.243  0.00  0.00     0.000 C 
ENDBRANCH  24  25
ENDBRANCH  23  24
ENDBRANCH  22  23
ENDBRANCH  20  22
ENDBRANCH   5  20
BRANCH  19  28
ATOM     28  O   UNL d   1     114.924 145.985 212.961  0.00  0.00    -0.385 OA
ATOM     29  H   UNL d   1     114.069 146.330 213.276  0.00  0.00     0.210 HD
ENDBRANCH  19  28
TORSDOF 6
ENDMDL
MODEL 3
REMARK VINA RESULT:    -8.647     46.884     51.761
REMARK INTER + INTRA:         -12.973
REMARK INTER:                 -12.318
REMARK INTRA:                  -0.655
REMARK UNBOUND:                -1.546
REMARK  6 active torsions:
REMARK  status: ('A' for Active; 'I' for Inactive)
REMARK    1  A    between atoms: O_1  and  C_22 
REMARK    2  A    between atoms: C_6  and  C_13 
REMARK    3  A    between atoms: C_13  and  C_21 
REMARK    4  A    between atoms: C_21  and  C_24 
REMARK    5  A    between atoms: C_24  and  C_25 
REMARK    6  A    between atoms: C_25  and  C_26 
ROOT
ATOM      1  C   UNL d   1     127.939 131.338 158.265  0.00  0.00     0.000 C 
ATOM      2  C   UNL d   1     127.556 132.313 159.407  0.00  0.00     0.000 C 
ATOM      3  C   UNL d   1     126.662 131.653 160.458  0.00  0.00     0.005 C 
ATOM      4  C   UNL d   1     127.405 130.445 161.098  0.00  0.00     0.004 C 
ATOM      5  C   UNL d   1     128.684 132.300 157.284  0.00  0.00     0.000 C 
ATOM      6  C   UNL d   1     128.841 130.280 158.931  0.00  0.00     0.000 C 
ATOM      7  C   UNL d   1     126.465 129.666 162.105  0.00  0.00     0.015 C 
ATOM      8  C   UNL d   1     127.022 133.533 158.679  0.00  0.00     0.000 C 
ATOM      9  C   UNL d   1     128.108 129.528 160.055  0.00  0.00     0.000 C 
ATOM     10  C   UNL d   1     127.950 133.663 157.469  0.00  0.00     0.000 C 
ATOM     11  C   UNL d   1     126.226 132.645 161.546  0.00  0.00     0.025 C 
ATOM     12  C   UNL d   1     126.696 130.692 157.603  0.00  0.00     0.000 C 
ATOM     13  C   UNL d   1     125.664 130.650 162.970  0.00  0.00    -0.047 C 
ATOM     14  C   UNL d   1     127.359 128.796 163.036  0.00  0.00     0.006 C 
ATOM     15  C   UNL d   1     125.590 131.967 162.719  0.00  0.00    -0.035 C 
ATOM     16  C   UNL d   1     125.466 128.755 161.351  0.00  0.00     0.004 C 
ATOM     17  C   UNL d   1     124.943 130.064 164.169  0.00  0.00     0.051 C 
ATOM     18  C   UNL d   1     126.613 128.173 164.217  0.00  0.00     0.030 C 
ATOM     19  C   UNL d   1     125.880 129.229 165.039  0.00  0.00     0.115 C 
ENDROOT
BRANCH   5  20
ATOM     20  C   UNL d   1     128.824 131.921 155.769  0.00  0.00     0.000 C 
ATOM     21  C   UNL d   1     130.120 131.161 155.463  0.00  0.00     0.000 C 
BRANCH  20  22
ATOM     22  C   UNL d   1     128.720 133.210 154.903  0.00  0.00     0.000 C 
BRANCH  22  23
ATOM     23  C   UNL d   1     128.481 133.044 153.395  0.00  0.00     0.000 C 
BRANCH  23  24
ATOM     24  C   UNL d   1     127.877 134.250 152.666  0.00  0.00     0.000 C 
BRANCH  24  25
ATOM     25  C   UNL d   1     128.616 134.689 151.389  0.00  0.00     0.000 C 
ATOM     26  C   UNL d   1     129.130 133.489 150.587  0.00  0.00     0.000 C 
ATOM     27  C   UNL d   1     127.693 135.540 150.513  0.00  0.00     0.000 C 
ENDBRANCH  24  25
ENDBRANCH  23  24
ENDBRANCH  22  23
ENDBRANCH  20  22
ENDBRANCH   5  20
BRANCH  19  28
ATOM     28  O   UNL d   1     125.112 128.588 166.056  0.00  0.00    -0.385 OA
ATOM     29  H   UNL d   1     124.181 128.844 165.924  0.00  0.00     0.210 HD
ENDBRANCH  19  28
TORSDOF 6
ENDMDL
MODEL 4
REMARK VINA RESULT:    -8.184      3.234      9.108
REMARK INTER + INTRA:         -12.362
REMARK INTER:                 -11.796
REMARK INTRA:                  -0.566
REMARK UNBOUND:                -1.546
REMARK  6 active torsions:
REMARK  status: ('A' for Active; 'I' for Inactive)
REMARK    1  A    between atoms: O_1  and  C_22 
REMARK    2  A    between atoms: C_6  and  C_13 
REMARK    3  A    between atoms: C_13  and  C_21 
REMARK    4  A    between atoms: C_21  and  C_24 
REMARK    5  A    between atoms: C_24  and  C_25 
REMARK    6  A    between atoms: C_25  and  C_26 
ROOT
ATOM      1  C   UNL d   1     112.925 148.714 202.251  0.00  0.00     0.000 C 
ATOM      2  C   UNL d   1     113.595 149.968 202.870  0.00  0.00     0.000 C 
ATOM      3  C   UNL d   1     113.605 149.925 204.399  0.00  0.00     0.005 C 
ATOM      4  C   UNL d   1     114.396 148.678 204.887  0.00  0.00     0.004 C 
ATOM      5  C   UNL d   1     112.903 149.100 200.738  0.00  0.00     0.000 C 
ATOM      6  C   UNL d   1     113.869 147.547 202.600  0.00  0.00     0.000 C 
ATOM      7  C   UNL d   1     114.326 148.538 206.461  0.00  0.00     0.015 C 
ATOM      8  C   UNL d   1     112.890 151.128 202.192  0.00  0.00     0.000 C 
ATOM      9  C   UNL d   1     114.030 147.374 204.121  0.00  0.00     0.000 C 
ATOM     10  C   UNL d   1     112.716 150.647 200.749  0.00  0.00     0.000 C 
ATOM     11  C   UNL d   1     114.201 151.203 205.005  0.00  0.00     0.025 C 
ATOM     12  C   UNL d   1     111.497 148.478 202.805  0.00  0.00     0.000 C 
ATOM     13  C   UNL d   1     114.510 149.904 207.136  0.00  0.00    -0.047 C 
ATOM     14  C   UNL d   1     115.476 147.594 206.921  0.00  0.00     0.006 C 
ATOM     15  C   UNL d   1     114.475 151.070 206.471  0.00  0.00    -0.035 C 
ATOM     16  C   UNL d   1     112.967 147.950 206.913  0.00  0.00     0.004 C 
ATOM     17  C   UNL d   1     114.755 149.892 208.633  0.00  0.00     0.051 C 
ATOM     18  C   UNL d   1     115.686 147.555 208.435  0.00  0.00     0.030 C 
ATOM     19  C   UNL d   1     115.899 148.952 209.010  0.00  0.00     0.115 C 
ENDROOT
BRANCH   5  20
ATOM     20  C   UNL d   1     111.890 148.403 199.765  0.00  0.00     0.000 C 
ATOM     21  C   UNL d   1     112.143 146.898 199.620  0.00  0.00     0.000 C 
BRANCH  20  22
ATOM     22  C   UNL d   1     111.937 149.108 198.379  0.00  0.00     0.000 C 
BRANCH  22  23
ATOM     23  C   UNL d   1     110.664 149.814 197.888  0.00  0.00     0.000 C 
BRANCH  23  24
ATOM     24  C   UNL d   1     109.938 149.159 196.706  0.00  0.00     0.000 C 
BRANCH  24  25
ATOM     25  C   UNL d   1     110.382 149.638 195.312  0.00  0.00     0.000 C 
ATOM     26  C   UNL d   1     109.849 148.729 194.200  0.00  0.00     0.000 C 
ATOM     27  C   UNL d   1     109.913 151.075 195.075  0.00  0.00     0.000 C 
ENDBRANCH  24  25
ENDBRANCH  23  24
ENDBRANCH  22  23
ENDBRANCH  20  22
ENDBRANCH   5  20
BRANCH  19  28
ATOM     28  O   UNL d   1     115.976 148.871 210.433  0.00  0.00    -0.385 OA
ATOM     29  H   UNL d   1     115.349 148.182 210.721  0.00  0.00     0.210 HD
ENDBRANCH  19  28
TORSDOF 6
ENDMDL
MODEL 5
REMARK VINA RESULT:    -8.178     47.179     51.761
REMARK INTER + INTRA:         -12.353
REMARK INTER:                 -10.797
REMARK INTRA:                  -1.557
REMARK UNBOUND:                -1.546
REMARK  6 active torsions:
REMARK  status: ('A' for Active; 'I' for Inactive)
REMARK    1  A    between atoms: O_1  and  C_22 
REMARK    2  A    between atoms: C_6  and  C_13 
REMARK    3  A    between atoms: C_13  and  C_21 
REMARK    4  A    between atoms: C_21  and  C_24 
REMARK    5  A    between atoms: C_24  and  C_25 
REMARK    6  A    between atoms: C_25  and  C_26 
ROOT
ATOM      1  C   UNL d   1     128.919 128.954 158.867  0.00  0.00     0.000 C 
ATOM      2  C   UNL d   1     128.579 130.383 159.365  0.00  0.00     0.000 C 
ATOM      3  C   UNL d   1     127.394 130.393 160.332  0.00  0.00     0.005 C 
ATOM      4  C   UNL d   1     127.724 129.524 161.580  0.00  0.00     0.004 C 
ATOM      5  C   UNL d   1     130.016 129.260 157.799  0.00  0.00     0.000 C 
ATOM      6  C   UNL d   1     129.431 128.210 160.116  0.00  0.00     0.000 C 
ATOM      7  C   UNL d   1     126.477 129.417 162.547  0.00  0.00     0.015 C 
ATOM      8  C   UNL d   1     128.466 131.194 158.088  0.00  0.00     0.000 C 
ATOM      9  C   UNL d   1     128.368 128.152 161.226  0.00  0.00     0.000 C 
ATOM     10  C   UNL d   1     129.590 130.639 157.210  0.00  0.00     0.000 C 
ATOM     11  C   UNL d   1     127.016 131.818 160.762  0.00  0.00     0.025 C 
ATOM     12  C   UNL d   1     127.692 128.243 158.244  0.00  0.00     0.000 C 
ATOM     13  C   UNL d   1     125.785 130.780 162.693  0.00  0.00    -0.047 C 
ATOM     14  C   UNL d   1     126.980 128.959 163.947  0.00  0.00     0.006 C 
ATOM     15  C   UNL d   1     126.055 131.836 161.908  0.00  0.00    -0.035 C 
ATOM     16  C   UNL d   1     125.439 128.398 162.014  0.00  0.00     0.004 C 
ATOM     17  C   UNL d   1     124.758 130.901 163.802  0.00  0.00     0.051 C 
ATOM     18  C   UNL d   1     125.923 129.043 165.050  0.00  0.00     0.030 C 
ATOM     19  C   UNL d   1     125.320 130.442 165.146  0.00  0.00     0.115 C 
ENDROOT
BRANCH   5  20
ATOM     20  C   UNL d   1     130.321 128.219 156.667  0.00  0.00     0.000 C 
ATOM     21  C   UNL d   1     131.422 127.224 157.054  0.00  0.00     0.000 C 
BRANCH  20  22
ATOM     22  C   UNL d   1     130.693 128.974 155.358  0.00  0.00     0.000 C 
BRANCH  22  23
ATOM     23  C   UNL d   1     129.710 128.895 154.180  0.00  0.00     0.000 C 
BRANCH  23  24
ATOM     24  C   UNL d   1     128.732 127.713 154.189  0.00  0.00     0.000 C 
BRANCH  24  25
ATOM     25  C   UNL d   1     127.275 128.065 154.540  0.00  0.00     0.000 C 
ATOM     26  C   UNL d   1     127.082 129.572 154.734  0.00  0.00     0.000 C 
ATOM     27  C   UNL d   1     126.334 127.560 153.443  0.00  0.00     0.000 C 
ENDBRANCH  24  25
ENDBRANCH  23  24
ENDBRANCH  22  23
ENDBRANCH  20  22
ENDBRANCH   5  20
BRANCH  19  28
ATOM     28  O   UNL d   1     124.266 130.438 166.107  0.00  0.00    -0.385 OA
ATOM     29  H   UNL d   1     124.458 131.141 166.755  0.00  0.00     0.210 HD
ENDBRANCH  19  28
TORSDOF 6
ENDMDL
MODEL 6
REMARK VINA RESULT:    -8.062     46.545     50.719
REMARK INTER + INTRA:         -12.200
REMARK INTER:                 -10.847
REMARK INTRA:                  -1.353
REMARK UNBOUND:                -1.546
REMARK  6 active torsions:
REMARK  status: ('A' for Active; 'I' for Inactive)
REMARK    1  A    between atoms: O_1  and  C_22 
REMARK    2  A    between atoms: C_6  and  C_13 
REMARK    3  A    between atoms: C_13  and  C_21 
REMARK    4  A    between atoms: C_21  and  C_24 
REMARK    5  A    between atoms: C_24  and  C_25 
REMARK    6  A    between atoms: C_25  and  C_26 
ROOT
ATOM      1  C   UNL d   1     127.368 128.785 161.772  0.00  0.00     0.000 C 
ATOM      2  C   UNL d   1     126.629 128.175 160.553  0.00  0.00     0.000 C 
ATOM      3  C   UNL d   1     127.364 128.440 159.238  0.00  0.00     0.005 C 
ATOM      4  C   UNL d   1     128.786 127.811 159.292  0.00  0.00     0.004 C 
ATOM      5  C   UNL d   1     126.337 128.517 162.915  0.00  0.00     0.000 C 
ATOM      6  C   UNL d   1     128.676 127.978 161.889  0.00  0.00     0.000 C 
ATOM      7  C   UNL d   1     129.616 128.167 157.993  0.00  0.00     0.015 C 
ATOM      8  C   UNL d   1     125.209 128.689 160.695  0.00  0.00     0.000 C 
ATOM      9  C   UNL d   1     129.540 128.099 160.622  0.00  0.00     0.000 C 
ATOM     10  C   UNL d   1     124.954 128.627 162.203  0.00  0.00     0.000 C 
ATOM     11  C   UNL d   1     126.589 127.898 158.029  0.00  0.00     0.025 C 
ATOM     12  C   UNL d   1     127.646 130.298 161.592  0.00  0.00     0.000 C 
ATOM     13  C   UNL d   1     128.742 128.039 156.738  0.00  0.00    -0.047 C 
ATOM     14  C   UNL d   1     130.803 127.166 157.881  0.00  0.00     0.006 C 
ATOM     15  C   UNL d   1     127.407 127.896 156.776  0.00  0.00    -0.035 C 
ATOM     16  C   UNL d   1     130.167 129.613 158.058  0.00  0.00     0.004 C 
ATOM     17  C   UNL d   1     129.465 128.065 155.405  0.00  0.00     0.051 C 
ATOM     18  C   UNL d   1     131.554 127.231 156.550  0.00  0.00     0.030 C 
ATOM     19  C   UNL d   1     130.610 127.056 155.363  0.00  0.00     0.115 C 
ENDROOT
BRANCH   5  20
ATOM     20  C   UNL d   1     126.379 129.375 164.226  0.00  0.00     0.000 C 
ATOM     21  C   UNL d   1     127.272 128.759 165.311  0.00  0.00     0.000 C 
BRANCH  20  22
ATOM     22  C   UNL d   1     124.931 129.583 164.755  0.00  0.00     0.000 C 
BRANCH  22  23
ATOM     23  C   UNL d   1     124.439 131.024 164.955  0.00  0.00     0.000 C 
BRANCH  23  24
ATOM     24  C   UNL d   1     123.571 131.607 163.833  0.00  0.00     0.000 C 
BRANCH  24  25
ATOM     25  C   UNL d   1     124.261 132.653 162.939  0.00  0.00     0.000 C 
ATOM     26  C   UNL d   1     123.470 133.964 162.880  0.00  0.00     0.000 C 
ATOM     27  C   UNL d   1     125.678 132.927 163.448  0.00  0.00     0.000 C 
ENDBRANCH  24  25
ENDBRANCH  23  24
ENDBRANCH  22  23
ENDBRANCH  20  22
ENDBRANCH   5  20
BRANCH  19  28
ATOM     28  O   UNL d   1     131.338 127.237 154.149  0.00  0.00    -0.385 OA
ATOM     29  H   UNL d   1     130.724 127.067 153.412  0.00  0.00     0.210 HD
ENDBRANCH  19  28
TORSDOF 6
ENDMDL
MODEL 7
REMARK VINA RESULT:    -7.722     48.195     52.365
REMARK INTER + INTRA:         -11.750
REMARK INTER:                 -10.417
REMARK INTRA:                  -1.333
REMARK UNBOUND:                -1.546
REMARK  6 active torsions:
REMARK  status: ('A' for Active; 'I' for Inactive)
REMARK    1  A    between atoms: O_1  and  C_22 
REMARK    2  A    between atoms: C_6  and  C_13 
REMARK    3  A    between atoms: C_13  and  C_21 
REMARK    4  A    between atoms: C_21  and  C_24 
REMARK    5  A    between atoms: C_24  and  C_25 
REMARK    6  A    between atoms: C_25  and  C_26 
ROOT
ATOM      1  C   UNL d   1     128.117 128.441 160.062  0.00  0.00     0.000 C 
ATOM      2  C   UNL d   1     127.636 128.156 158.616  0.00  0.00     0.000 C 
ATOM      3  C   UNL d   1     128.701 128.497 157.573  0.00  0.00     0.005 C 
ATOM      4  C   UNL d   1     129.977 127.643 157.822  0.00  0.00     0.004 C 
ATOM      5  C   UNL d   1     126.810 128.172 160.874  0.00  0.00     0.000 C 
ATOM      6  C   UNL d   1     129.247 127.422 160.313  0.00  0.00     0.000 C 
ATOM      7  C   UNL d   1     131.141 128.055 156.833  0.00  0.00     0.015 C 
ATOM      8  C   UNL d   1     126.299 128.868 158.533  0.00  0.00     0.000 C 
ATOM      9  C   UNL d   1     130.407 127.594 159.317  0.00  0.00     0.000 C 
ATOM     10  C   UNL d   1     125.672 128.616 159.906  0.00  0.00     0.000 C 
ATOM     11  C   UNL d   1     128.190 128.283 156.141  0.00  0.00     0.025 C 
ATOM     12  C   UNL d   1     128.615 129.897 160.239  0.00  0.00     0.000 C 
ATOM     13  C   UNL d   1     130.597 128.267 155.414  0.00  0.00    -0.047 C 
ATOM     14  C   UNL d   1     132.187 126.902 156.801  0.00  0.00     0.006 C 
ATOM     15  C   UNL d   1     129.288 128.342 155.125  0.00  0.00    -0.035 C 
ATOM     16  C   UNL d   1     131.831 129.363 157.292  0.00  0.00     0.004 C 
ATOM     17  C   UNL d   1     131.627 128.381 154.305  0.00  0.00     0.051 C 
ATOM     18  C   UNL d   1     133.247 127.049 155.708  0.00  0.00     0.030 C 
ATOM     19  C   UNL d   1     132.614 127.216 154.329  0.00  0.00     0.115 C 
ENDROOT
BRANCH   5  20
ATOM     20  C   UNL d   1     126.630 128.797 162.300  0.00  0.00     0.000 C 
ATOM     21  C   UNL d   1     127.405 128.039 163.385  0.00  0.00     0.000 C 
BRANCH  20  22
ATOM     22  C   UNL d   1     125.115 128.863 162.647  0.00  0.00     0.000 C 
BRANCH  22  23
ATOM     23  C   UNL d   1     124.631 130.022 163.533  0.00  0.00     0.000 C 
BRANCH  23  24
ATOM     24  C   UNL d   1     124.206 131.302 162.804  0.00  0.00     0.000 C 
BRANCH  24  25
ATOM     25  C   UNL d   1     125.233 132.449 162.831  0.00  0.00     0.000 C 
ATOM     26  C   UNL d   1     126.270 132.261 163.942  0.00  0.00     0.000 C 
ATOM     27  C   UNL d   1     125.938 132.554 161.476  0.00  0.00     0.000 C 
ENDBRANCH  24  25
ENDBRANCH  23  24
ENDBRANCH  22  23
ENDBRANCH  20  22
ENDBRANCH   5  20
BRANCH  19  28
ATOM     28  O   UNL d   1     133.637 127.462 153.366  0.00  0.00    -0.385 OA
ATOM     29  H   UNL d   1     134.451 127.034 153.689  0.00  0.00     0.210 HD
ENDBRANCH  19  28
TORSDOF 6
ENDMDL
MODEL 8
REMARK VINA RESULT:    -7.641     13.877     16.459
REMARK INTER + INTRA:         -11.644
REMARK INTER:                 -10.772
REMARK INTRA:                  -0.872
REMARK UNBOUND:                -1.546
REMARK  6 active torsions:
REMARK  status: ('A' for Active; 'I' for Inactive)
REMARK    1  A    between atoms: O_1  and  C_22 
REMARK    2  A    between atoms: C_6  and  C_13 
REMARK    3  A    between atoms: C_13  and  C_21 
REMARK    4  A    between atoms: C_21  and  C_24 
REMARK    5  A    between atoms: C_24  and  C_25 
REMARK    6  A    between atoms: C_25  and  C_26 
ROOT
ATOM      1  C   UNL d   1     126.938 141.517 197.874  0.00  0.00     0.000 C 
ATOM      2  C   UNL d   1     125.952 140.773 196.937  0.00  0.00     0.000 C 
ATOM      3  C   UNL d   1     125.027 139.826 197.704  0.00  0.00     0.005 C 
ATOM      4  C   UNL d   1     124.183 140.631 198.733  0.00  0.00     0.004 C 
ATOM      5  C   UNL d   1     127.841 142.256 196.836  0.00  0.00     0.000 C 
ATOM      6  C   UNL d   1     126.051 142.446 198.726  0.00  0.00     0.000 C 
ATOM      7  C   UNL d   1     123.301 139.667 199.625  0.00  0.00     0.015 C 
ATOM      8  C   UNL d   1     126.847 140.184 195.863  0.00  0.00     0.000 C 
ATOM      9  C   UNL d   1     125.019 141.657 199.551  0.00  0.00     0.000 C 
ATOM     10  C   UNL d   1     127.885 141.283 195.619  0.00  0.00     0.000 C 
ATOM     11  C   UNL d   1     124.106 139.037 196.762  0.00  0.00     0.025 C 
ATOM     12  C   UNL d   1     127.756 140.543 198.758  0.00  0.00     0.000 C 
ATOM     13  C   UNL d   1     122.661 138.567 198.766  0.00  0.00    -0.047 C 
ATOM     14  C   UNL d   1     122.169 140.509 200.284  0.00  0.00     0.006 C 
ATOM     15  C   UNL d   1     123.015 138.321 197.494  0.00  0.00    -0.035 C 
ATOM     16  C   UNL d   1     124.149 138.991 200.730  0.00  0.00     0.004 C 
ATOM     17  C   UNL d   1     121.566 137.748 199.422  0.00  0.00     0.051 C 
ATOM     18  C   UNL d   1     121.093 139.675 200.981  0.00  0.00     0.030 C 
ATOM     19  C   UNL d   1     120.488 138.636 200.040  0.00  0.00     0.115 C 
ENDROOT
BRANCH   5  20
ATOM     20  C   UNL d   1     129.277 142.733 197.244  0.00  0.00     0.000 C 
ATOM     21  C   UNL d   1     130.323 141.613 197.160  0.00  0.00     0.000 C 
BRANCH  20  22
ATOM     22  C   UNL d   1     129.232 143.340 198.676  0.00  0.00     0.000 C 
BRANCH  22  23
ATOM     23  C   UNL d   1     130.271 142.851 199.697  0.00  0.00     0.000 C 
BRANCH  23  24
ATOM     24  C   UNL d   1     129.860 142.927 201.173  0.00  0.00     0.000 C 
BRANCH  24  25
ATOM     25  C   UNL d   1     128.348 143.063 201.431  0.00  0.00     0.000 C 
ATOM     26  C   UNL d   1     127.774 141.823 202.123  0.00  0.00     0.000 C 
ATOM     27  C   UNL d   1     128.070 144.305 202.281  0.00  0.00     0.000 C 
ENDBRANCH  24  25
ENDBRANCH  23  24
ENDBRANCH  22  23
ENDBRANCH  20  22
ENDBRANCH   5  20
BRANCH  19  28
ATOM     28  O   UNL d   1     119.577 137.814 200.767  0.00  0.00    -0.385 OA
ATOM     29  H   UNL d   1     119.084 137.280 200.117  0.00  0.00     0.210 HD
ENDBRANCH  19  28
TORSDOF 6
ENDMDL
MODEL 9
REMARK VINA RESULT:    -7.509     40.078     43.663
REMARK INTER + INTRA:         -11.469
REMARK INTER:                  -9.792
REMARK INTRA:                  -1.677
REMARK UNBOUND:                -1.546
REMARK  6 active torsions:
REMARK  status: ('A' for Active; 'I' for Inactive)
REMARK    1  A    between atoms: O_1  and  C_22 
REMARK    2  A    between atoms: C_6  and  C_13 
REMARK    3  A    between atoms: C_13  and  C_21 
REMARK    4  A    between atoms: C_21  and  C_24 
REMARK    5  A    between atoms: C_24  and  C_25 
REMARK    6  A    between atoms: C_25  and  C_26 
ROOT
ATOM      1  C   UNL d   1     128.352 126.286 172.465  0.00  0.00     0.000 C 
ATOM      2  C   UNL d   1     128.063 124.837 172.935  0.00  0.00     0.000 C 
ATOM      3  C   UNL d   1     128.523 123.794 171.915  0.00  0.00     0.005 C 
ATOM      4  C   UNL d   1     130.057 123.919 171.688  0.00  0.00     0.004 C 
ATOM      5  C   UNL d   1     127.645 127.113 173.586  0.00  0.00     0.000 C 
ATOM      6  C   UNL d   1     129.889 126.402 172.458  0.00  0.00     0.000 C 
ATOM      7  C   UNL d   1     130.548 122.934 170.552  0.00  0.00     0.015 C 
ATOM      8  C   UNL d   1     126.595 124.866 173.316  0.00  0.00     0.000 C 
ATOM      9  C   UNL d   1     130.537 125.388 171.500  0.00  0.00     0.000 C 
ATOM     10  C   UNL d   1     126.425 126.230 173.988  0.00  0.00     0.000 C 
ATOM     11  C   UNL d   1     128.166 122.366 172.354  0.00  0.00     0.025 C 
ATOM     12  C   UNL d   1     127.752 126.580 171.067  0.00  0.00     0.000 C 
ATOM     13  C   UNL d   1     129.880 121.559 170.700  0.00  0.00    -0.047 C 
ATOM     14  C   UNL d   1     132.088 122.759 170.687  0.00  0.00     0.006 C 
ATOM     15  C   UNL d   1     128.843 121.324 171.521  0.00  0.00    -0.035 C 
ATOM     16  C   UNL d   1     130.214 123.488 169.145  0.00  0.00     0.004 C 
ATOM     17  C   UNL d   1     130.461 120.432 169.869  0.00  0.00     0.051 C 
ATOM     18  C   UNL d   1     132.672 121.648 169.811  0.00  0.00     0.030 C 
ATOM     19  C   UNL d   1     131.973 120.314 170.055  0.00  0.00     0.115 C 
ENDROOT
BRANCH   5  20
ATOM     20  C   UNL d   1     127.217 128.597 173.314  0.00  0.00     0.000 C 
ATOM     21  C   UNL d   1     127.808 129.582 174.329  0.00  0.00     0.000 C 
BRANCH  20  22
ATOM     22  C   UNL d   1     125.664 128.691 173.291  0.00  0.00     0.000 C 
BRANCH  22  23
ATOM     23  C   UNL d   1     124.999 129.284 172.040  0.00  0.00     0.000 C 
BRANCH  23  24
ATOM     24  C   UNL d   1     123.880 128.449 171.405  0.00  0.00     0.000 C 
BRANCH  24  25
ATOM     25  C   UNL d   1     124.171 126.943 171.277  0.00  0.00     0.000 C 
ATOM     26  C   UNL d   1     123.186 126.099 172.092  0.00  0.00     0.000 C 
ATOM     27  C   UNL d   1     124.122 126.520 169.807  0.00  0.00     0.000 C 
ENDBRANCH  24  25
ENDBRANCH  23  24
ENDBRANCH  22  23
ENDBRANCH  20  22
ENDBRANCH   5  20
BRANCH  19  28
ATOM     28  O   UNL d   1     132.474 119.343 169.137  0.00  0.00    -0.385 OA
ATOM     29  H   UNL d   1     133.387 119.597 168.912  0.00  0.00     0.210 HD
ENDBRANCH  19  28
TORSDOF 6
ENDMDL
MODEL 10
REMARK VINA RESULT:    -7.477     40.210     43.843
REMARK INTER + INTRA:         -11.426
REMARK INTER:                 -10.059
REMARK INTRA:                  -1.367
REMARK UNBOUND:                -1.546
REMARK  6 active torsions:
REMARK  status: ('A' for Active; 'I' for Inactive)
REMARK    1  A    between atoms: O_1  and  C_22 
REMARK    2  A    between atoms: C_6  and  C_13 
REMARK    3  A    between atoms: C_13  and  C_21 
REMARK    4  A    between atoms: C_21  and  C_24 
REMARK    5  A    between atoms: C_24  and  C_25 
REMARK    6  A    between atoms: C_25  and  C_26 
ROOT
ATOM      1  C   UNL d   1     127.590 123.174 171.622  0.00  0.00     0.000 C 
ATOM      2  C   UNL d   1     128.193 124.495 172.164  0.00  0.00     0.000 C 
ATOM      3  C   UNL d   1     127.446 125.727 171.652  0.00  0.00     0.005 C 
ATOM      4  C   UNL d   1     125.959 125.668 172.104  0.00  0.00     0.004 C 
ATOM      5  C   UNL d   1     128.624 122.130 172.152  0.00  0.00     0.000 C 
ATOM      6  C   UNL d   1     126.195 123.079 172.271  0.00  0.00     0.000 C 
ATOM      7  C   UNL d   1     125.128 126.868 171.493  0.00  0.00     0.015 C 
ATOM      8  C   UNL d   1     129.673 124.373 171.849  0.00  0.00     0.000 C 
ATOM      9  C   UNL d   1     125.302 124.273 171.890  0.00  0.00     0.000 C 
ATOM     10  C   UNL d   1     129.979 122.899 172.126  0.00  0.00     0.000 C 
ATOM     11  C   UNL d   1     128.095 127.033 172.134  0.00  0.00     0.025 C 
ATOM     12  C   UNL d   1     127.501 123.162 170.075  0.00  0.00     0.000 C 
ATOM     13  C   UNL d   1     125.927 128.176 171.573  0.00  0.00    -0.047 C 
ATOM     14  C   UNL d   1     123.819 127.029 172.320  0.00  0.00     0.006 C 
ATOM     15  C   UNL d   1     127.233 128.230 171.881  0.00  0.00    -0.035 C 
ATOM     16  C   UNL d   1     124.771 126.605 170.009  0.00  0.00     0.004 C 
ATOM     17  C   UNL d   1     125.160 129.455 171.295  0.00  0.00     0.051 C 
ATOM     18  C   UNL d   1     123.030 128.300 172.000  0.00  0.00     0.030 C 
ATOM     19  C   UNL d   1     123.894 129.550 172.144  0.00  0.00     0.115 C 
ENDROOT
BRANCH   5  20
ATOM     20  C   UNL d   1     128.745 120.727 171.462  0.00  0.00     0.000 C 
ATOM     21  C   UNL d   1     128.082 119.606 172.273  0.00  0.00     0.000 C 
BRANCH  20  22
ATOM     22  C   UNL d   1     130.245 120.408 171.201  0.00  0.00     0.000 C 
BRANCH  22  23
ATOM     23  C   UNL d   1     130.699 120.236 169.744  0.00  0.00     0.000 C 
BRANCH  23  24
ATOM     24  C   UNL d   1     132.170 120.557 169.448  0.00  0.00     0.000 C 
BRANCH  24  25
ATOM     25  C   UNL d   1     132.435 121.955 168.861  0.00  0.00     0.000 C 
ATOM     26  C   UNL d   1     131.140 122.747 168.663  0.00  0.00     0.000 C 
ATOM     27  C   UNL d   1     133.386 122.737 169.772  0.00  0.00     0.000 C 
ENDBRANCH  24  25
ENDBRANCH  23  24
ENDBRANCH  22  23
ENDBRANCH  20  22
ENDBRANCH   5  20
BRANCH  19  28
ATOM     28  O   UNL d   1     123.146 130.691 171.727  0.00  0.00    -0.385 OA
ATOM     29  H   UNL d   1     122.309 130.691 172.227  0.00  0.00     0.210 HD
ENDBRANCH  19  28
TORSDOF 6
ENDMDL
MODEL 11
REMARK VINA RESULT:    -7.459     15.009     17.088
REMARK INTER + INTRA:         -11.403
REMARK INTER:                 -10.101
REMARK INTRA:                  -1.302
REMARK UNBOUND:                -1.546
REMARK  6 active torsions:
REMARK  status: ('A' for Active; 'I' for Inactive)
REMARK    1  A    between atoms: O_1  and  C_22 
REMARK    2  A    between atoms: C_6  and  C_13 
REMARK    3  A    between atoms: C_13  and  C_21 
REMARK    4  A    between atoms: C_21  and  C_24 
REMARK    5  A    between atoms: C_24  and  C_25 
REMARK    6  A    between atoms: C_25  and  C_26 
ROOT
ATOM      1  C   UNL d   1     125.891 141.182 198.612  0.00  0.00     0.000 C 
ATOM      2  C   UNL d   1     125.082 141.058 197.296  0.00  0.00     0.000 C 
ATOM      3  C   UNL d   1     124.555 139.640 197.070  0.00  0.00     0.005 C 
ATOM      4  C   UNL d   1     123.617 139.232 198.242  0.00  0.00     0.004 C 
ATOM      5  C   UNL d   1     126.432 142.643 198.498  0.00  0.00     0.000 C 
ATOM      6  C   UNL d   1     124.859 140.967 199.736  0.00  0.00     0.000 C 
ATOM      7  C   UNL d   1     123.148 137.728 198.100  0.00  0.00     0.015 C 
ATOM      8  C   UNL d   1     126.001 141.656 196.247  0.00  0.00     0.000 C 
ATOM      9  C   UNL d   1     124.190 139.585 199.645  0.00  0.00     0.000 C 
ATOM     10  C   UNL d   1     126.641 142.846 196.967  0.00  0.00     0.000 C 
ATOM     11  C   UNL d   1     123.819 139.508 195.729  0.00  0.00     0.025 C 
ATOM     12  C   UNL d   1     127.043 140.147 198.692  0.00  0.00     0.000 C 
ATOM     13  C   UNL d   1     122.779 137.410 196.644  0.00  0.00    -0.047 C 
ATOM     14  C   UNL d   1     121.889 137.521 198.992  0.00  0.00     0.006 C 
ATOM     15  C   UNL d   1     123.064 138.222 195.613  0.00  0.00    -0.035 C 
ATOM     16  C   UNL d   1     124.261 136.748 198.546  0.00  0.00     0.004 C 
ATOM     17  C   UNL d   1     122.043 136.106 196.403  0.00  0.00     0.051 C 
ATOM     18  C   UNL d   1     121.179 136.184 198.773  0.00  0.00     0.030 C 
ATOM     19  C   UNL d   1     120.817 135.973 197.305  0.00  0.00     0.115 C 
ENDROOT
BRANCH   5  20
ATOM     20  C   UNL d   1     127.697 143.077 199.315  0.00  0.00     0.000 C 
ATOM     21  C   UNL d   1     127.353 143.951 200.527  0.00  0.00     0.000 C 
BRANCH  20  22
ATOM     22  C   UNL d   1     128.695 143.809 198.371  0.00  0.00     0.000 C 
BRANCH  22  23
ATOM     23  C   UNL d   1     130.106 143.219 198.221  0.00  0.00     0.000 C 
BRANCH  23  24
ATOM     24  C   UNL d   1     130.439 142.019 199.117  0.00  0.00     0.000 C 
BRANCH  24  25
ATOM     25  C   UNL d   1     131.560 142.255 200.146  0.00  0.00     0.000 C 
ATOM     26  C   UNL d   1     132.581 143.284 199.652  0.00  0.00     0.000 C 
ATOM     27  C   UNL d   1     130.963 142.716 201.478  0.00  0.00     0.000 C 
ENDBRANCH  24  25
ENDBRANCH  23  24
ENDBRANCH  22  23
ENDBRANCH  20  22
ENDBRANCH   5  20
BRANCH  19  28
ATOM     28  O   UNL d   1     120.263 134.669 197.137  0.00  0.00    -0.385 OA
ATOM     29  H   UNL d   1     120.268 134.235 198.010  0.00  0.00     0.210 HD
ENDBRANCH  19  28
TORSDOF 6
ENDMDL
MODEL 12
REMARK VINA RESULT:    -7.135     14.982     17.423
REMARK INTER + INTRA:         -10.975
REMARK INTER:                  -9.449
REMARK INTRA:                  -1.526
REMARK UNBOUND:                -1.546
REMARK  6 active torsions:
REMARK  status: ('A' for Active; 'I' for Inactive)
REMARK    1  A    between atoms: O_1  and  C_22 
REMARK    2  A    between atoms: C_6  and  C_13 
REMARK    3  A    between atoms: C_13  and  C_21 
REMARK    4  A    between atoms: C_21  and  C_24 
REMARK    5  A    between atoms: C_24  and  C_25 
REMARK    6  A    between atoms: C_25  and  C_26 
ROOT
ATOM      1  C   UNL d   1     125.683 140.843 197.355  0.00  0.00     0.000 C 
ATOM      2  C   UNL d   1     124.791 139.754 198.003  0.00  0.00     0.000 C 
ATOM      3  C   UNL d   1     124.155 138.830 196.963  0.00  0.00     0.005 C 
ATOM      4  C   UNL d   1     125.268 138.107 196.150  0.00  0.00     0.004 C 
ATOM      5  C   UNL d   1     126.048 141.714 198.599  0.00  0.00     0.000 C 
ATOM      6  C   UNL d   1     126.870 140.072 196.744  0.00  0.00     0.000 C 
ATOM      7  C   UNL d   1     124.647 137.233 194.987  0.00  0.00     0.015 C 
ATOM      8  C   UNL d   1     123.871 140.537 198.921  0.00  0.00     0.000 C 
ATOM      9  C   UNL d   1     126.411 139.055 195.685  0.00  0.00     0.000 C 
ATOM     10  C   UNL d   1     124.783 141.618 199.506  0.00  0.00     0.000 C 
ATOM     11  C   UNL d   1     123.215 137.801 197.607  0.00  0.00     0.025 C 
ATOM     12  C   UNL d   1     124.923 141.662 196.282  0.00  0.00     0.000 C 
ATOM     13  C   UNL d   1     123.408 136.472 195.481  0.00  0.00    -0.047 C 
ATOM     14  C   UNL d   1     125.716 136.200 194.525  0.00  0.00     0.006 C 
ATOM     15  C   UNL d   1     122.804 136.723 196.654  0.00  0.00    -0.035 C 
ATOM     16  C   UNL d   1     124.230 138.114 193.783  0.00  0.00     0.004 C 
ATOM     17  C   UNL d   1     122.878 135.379 194.573  0.00  0.00     0.051 C 
ATOM     18  C   UNL d   1     125.182 135.128 193.574  0.00  0.00     0.030 C 
ATOM     19  C   UNL d   1     123.978 134.400 194.166  0.00  0.00     0.115 C 
ENDROOT
BRANCH   5  20
ATOM     20  C   UNL d   1     126.508 143.201 198.408  0.00  0.00     0.000 C 
ATOM     21  C   UNL d   1     127.954 143.317 197.911  0.00  0.00     0.000 C 
BRANCH  20  22
ATOM     22  C   UNL d   1     126.318 143.976 199.744  0.00  0.00     0.000 C 
BRANCH  22  23
ATOM     23  C   UNL d   1     127.512 144.047 200.708  0.00  0.00     0.000 C 
BRANCH  23  24
ATOM     24  C   UNL d   1     127.538 143.006 201.834  0.00  0.00     0.000 C 
BRANCH  24  25
ATOM     25  C   UNL d   1     128.720 142.021 201.794  0.00  0.00     0.000 C 
ATOM     26  C   UNL d   1     128.324 140.679 201.171  0.00  0.00     0.000 C 
ATOM     27  C   UNL d   1     129.887 142.630 201.012  0.00  0.00     0.000 C 
ENDBRANCH  24  25
ENDBRANCH  23  24
ENDBRANCH  22  23
ENDBRANCH  20  22
ENDBRANCH   5  20
BRANCH  19  28
ATOM     28  O   UNL d   1     123.451 133.494 193.199  0.00  0.00    -0.385 OA
ATOM     29  H   UNL d   1     123.802 133.758 192.329  0.00  0.00     0.210 HD
ENDBRANCH  19  28
TORSDOF 6
ENDMDL
MODEL 13
REMARK VINA RESULT:    -7.102     16.869     21.916
REMARK INTER + INTRA:         -10.931
REMARK INTER:                  -9.388
REMARK INTRA:                  -1.543
REMARK UNBOUND:                -1.546
REMARK  6 active torsions:
REMARK  status: ('A' for Active; 'I' for Inactive)
REMARK    1  A    between atoms: O_1  and  C_22 
REMARK    2  A    between atoms: C_6  and  C_13 
REMARK    3  A    between atoms: C_13  and  C_21 
REMARK    4  A    between atoms: C_21  and  C_24 
REMARK    5  A    between atoms: C_24  and  C_25 
REMARK    6  A    between atoms: C_25  and  C_26 
ROOT
ATOM      1  C   UNL d   1     105.952 146.508 185.056  0.00  0.00     0.000 C 
ATOM      2  C   UNL d   1     106.739 147.838 184.937  0.00  0.00     0.000 C 
ATOM      3  C   UNL d   1     107.762 147.807 183.800  0.00  0.00     0.005 C 
ATOM      4  C   UNL d   1     107.037 147.563 182.445  0.00  0.00     0.004 C 
ATOM      5  C   UNL d   1     105.132 146.758 186.362  0.00  0.00     0.000 C 
ATOM      6  C   UNL d   1     105.103 146.432 183.772  0.00  0.00     0.000 C 
ATOM      7  C   UNL d   1     108.077 147.408 181.263  0.00  0.00     0.015 C 
ATOM      8  C   UNL d   1     107.243 148.089 186.346  0.00  0.00     0.000 C 
ATOM      9  C   UNL d   1     105.976 146.427 182.506  0.00  0.00     0.000 C 
ATOM     10  C   UNL d   1     106.073 147.648 187.229  0.00  0.00     0.000 C 
ATOM     11  C   UNL d   1     108.588 149.099 183.737  0.00  0.00     0.025 C 
ATOM     12  C   UNL d   1     106.889 145.282 185.193  0.00  0.00     0.000 C 
ATOM     13  C   UNL d   1     109.197 148.450 181.385  0.00  0.00    -0.047 C 
ATOM     14  C   UNL d   1     107.327 147.634 179.918  0.00  0.00     0.006 C 
ATOM     15  C   UNL d   1     109.392 149.205 182.478  0.00  0.00    -0.035 C 
ATOM     16  C   UNL d   1     108.720 145.999 181.262  0.00  0.00     0.004 C 
ATOM     17  C   UNL d   1     110.102 148.615 180.178  0.00  0.00     0.051 C 
ATOM     18  C   UNL d   1     108.246 147.754 178.701  0.00  0.00     0.030 C 
ATOM     19  C   UNL d   1     109.301 148.840 178.898  0.00  0.00     0.115 C 
ENDROOT
BRANCH   5  20
ATOM     20  C   UNL d   1     104.570 145.545 187.181  0.00  0.00     0.000 C 
ATOM     21  C   UNL d   1     103.093 145.713 187.557  0.00  0.00     0.000 C 
BRANCH  20  22
ATOM     22  C   UNL d   1     105.444 145.331 188.451  0.00  0.00     0.000 C 
BRANCH  22  23
ATOM     23  C   UNL d   1     106.152 143.978 188.615  0.00  0.00     0.000 C 
BRANCH  23  24
ATOM     24  C   UNL d   1     107.562 144.018 189.218  0.00  0.00     0.000 C 
BRANCH  24  25
ATOM     25  C   UNL d   1     108.456 145.172 188.730  0.00  0.00     0.000 C 
ATOM     26  C   UNL d   1     108.908 146.073 189.883  0.00  0.00     0.000 C 
ATOM     27  C   UNL d   1     109.680 144.616 187.998  0.00  0.00     0.000 C 
ENDBRANCH  24  25
ENDBRANCH  23  24
ENDBRANCH  22  23
ENDBRANCH  20  22
ENDBRANCH   5  20
BRANCH  19  28
ATOM     28  O   UNL d   1     110.197 148.834 177.788  0.00  0.00    -0.385 OA
ATOM     29  H   UNL d   1     111.104 148.829 178.145  0.00  0.00     0.210 HD
ENDBRANCH  19  28
TORSDOF 6
ENDMDL
MODEL 14
REMARK VINA RESULT:    -6.939      1.432      3.420
REMARK INTER + INTRA:         -10.716
REMARK INTER:                  -9.706
REMARK INTRA:                  -1.010
REMARK UNBOUND:                -1.546
REMARK  6 active torsions:
REMARK  status: ('A' for Active; 'I' for Inactive)
REMARK    1  A    between atoms: O_1  and  C_22 
REMARK    2  A    between atoms: C_6  and  C_13 
REMARK    3  A    between atoms: C_13  and  C_21 
REMARK    4  A    between atoms: C_21  and  C_24 
REMARK    5  A    between atoms: C_24  and  C_25 
REMARK    6  A    between atoms: C_25  and  C_26 
ROOT
ATOM      1  C   UNL d   1     113.639 148.593 204.096  0.00  0.00     0.000 C 
ATOM      2  C   UNL d   1     112.156 148.942 203.813  0.00  0.00     0.000 C 
ATOM      3  C   UNL d   1     111.978 149.699 202.496  0.00  0.00     0.005 C 
ATOM      4  C   UNL d   1     112.492 148.828 201.314  0.00  0.00     0.004 C 
ATOM      5  C   UNL d   1     113.541 147.998 205.537  0.00  0.00     0.000 C 
ATOM      6  C   UNL d   1     114.022 147.571 203.007  0.00  0.00     0.000 C 
ATOM      7  C   UNL d   1     112.433 149.626 199.949  0.00  0.00     0.015 C 
ATOM      8  C   UNL d   1     111.691 149.613 205.092  0.00  0.00     0.000 C 
ATOM      9  C   UNL d   1     113.868 148.156 201.592  0.00  0.00     0.000 C 
ATOM     10  C   UNL d   1     112.377 148.801 206.193  0.00  0.00     0.000 C 
ATOM     11  C   UNL d   1     110.517 150.106 202.260  0.00  0.00     0.025 C 
ATOM     12  C   UNL d   1     114.554 149.842 204.051  0.00  0.00     0.000 C 
ATOM     13  C   UNL d   1     111.120 150.414 199.838  0.00  0.00    -0.047 C 
ATOM     14  C   UNL d   1     112.501 148.602 198.779  0.00  0.00     0.006 C 
ATOM     15  C   UNL d   1     110.275 150.595 200.867  0.00  0.00    -0.035 C 
ATOM     16  C   UNL d   1     113.611 150.623 199.830  0.00  0.00     0.004 C 
ATOM     17  C   UNL d   1     110.791 150.992 198.475  0.00  0.00     0.051 C 
ATOM     18  C   UNL d   1     112.212 149.204 197.402  0.00  0.00     0.030 C 
ATOM     19  C   UNL d   1     110.871 149.933 197.378  0.00  0.00     0.115 C 
ENDROOT
BRANCH   5  20
ATOM     20  C   UNL d   1     114.808 147.962 206.459  0.00  0.00     0.000 C 
ATOM     21  C   UNL d   1     115.207 146.538 206.866  0.00  0.00     0.000 C 
BRANCH  20  22
ATOM     22  C   UNL d   1     114.559 148.847 207.714  0.00  0.00     0.000 C 
BRANCH  22  23
ATOM     23  C   UNL d   1     115.502 148.673 208.914  0.00  0.00     0.000 C 
BRANCH  23  24
ATOM     24  C   UNL d   1     114.835 148.397 210.267  0.00  0.00     0.000 C 
BRANCH  24  25
ATOM     25  C   UNL d   1     114.231 146.991 210.432  0.00  0.00     0.000 C 
ATOM     26  C   UNL d   1     114.731 146.299 211.703  0.00  0.00     0.000 C 
ATOM     27  C   UNL d   1     112.702 147.074 210.456  0.00  0.00     0.000 C 
ENDBRANCH  24  25
ENDBRANCH  23  24
ENDBRANCH  22  23
ENDBRANCH  20  22
ENDBRANCH   5  20
BRANCH  19  28
ATOM     28  O   UNL d   1     110.702 150.569 196.113  0.00  0.00    -0.385 OA
ATOM     29  H   UNL d   1     110.024 151.261 196.221  0.00  0.00     0.210 HD
ENDBRANCH  19  28
TORSDOF 6
ENDMDL
