MODEL 1
REMARK VINA RESULT:   -10.840      0.000      0.000
REMARK INTER + INTRA:         -15.288
REMARK INTER:                 -14.325
REMARK INTRA:                  -0.963
REMARK UNBOUND:                -0.963
REMARK  6 active torsions:
REMARK  status: ('A' for Active; 'I' for Inactive)
REMARK    1  A    between atoms: O_1  and  C_22 
REMARK    2  A    between atoms: C_6  and  C_13 
REMARK    3  A    between atoms: C_13  and  C_21 
REMARK    4  A    between atoms: C_21  and  C_24 
REMARK    5  A    between atoms: C_24  and  C_25 
REMARK    6  A    between atoms: C_25  and  C_26 
ROOT
ATOM      1  C   UNL d   1     112.590 149.390 202.658  0.00  0.00     0.000 C 
ATOM      2  C   UNL d   1     113.363 148.140 203.150  0.00  0.00     0.000 C 
ATOM      3  C   UNL d   1     114.217 148.434 204.385  0.00  0.00     0.005 C 
ATOM      4  C   UNL d   1     113.308 148.917 205.552  0.00  0.00     0.004 C 
ATOM      5  C   UNL d   1     111.963 148.855 201.332  0.00  0.00     0.000 C 
ATOM      6  C   UNL d   1     111.569 149.690 203.773  0.00  0.00     0.000 C 
ATOM      7  C   UNL d   1     114.171 149.343 206.808  0.00  0.00     0.015 C 
ATOM      8  C   UNL d   1     114.061 147.632 201.903  0.00  0.00     0.000 C 
ATOM      9  C   UNL d   1     112.257 149.980 205.119  0.00  0.00     0.000 C 
ATOM     10  C   UNL d   1     113.023 147.844 200.798  0.00  0.00     0.000 C 
ATOM     11  C   UNL d   1     115.037 147.212 204.820  0.00  0.00     0.025 C 
ATOM     12  C   UNL d   1     113.528 150.598 202.405  0.00  0.00     0.000 C 
ATOM     13  C   UNL d   1     115.306 148.338 207.052  0.00  0.00    -0.047 C 
ATOM     14  C   UNL d   1     113.242 149.362 208.056  0.00  0.00     0.006 C 
ATOM     15  C   UNL d   1     115.657 147.388 206.171  0.00  0.00    -0.035 C 
ATOM     16  C   UNL d   1     114.797 150.746 206.610  0.00  0.00     0.004 C 
ATOM     17  C   UNL d   1     116.034 148.450 208.378  0.00  0.00     0.051 C 
ATOM     18  C   UNL d   1     113.983 149.521 209.385  0.00  0.00     0.030 C 
ATOM     19  C   UNL d   1     115.063 148.457 209.557  0.00  0.00     0.115 C 
ENDROOT
BRANCH   5  20
ATOM     20  C   UNL d   1     111.512 149.859 200.216  0.00  0.00     0.000 C 
ATOM     21  C   UNL d   1     110.483 150.882 200.715  0.00  0.00     0.000 C 
BRANCH  20  22
ATOM     22  C   UNL d   1     110.955 149.064 199.000  0.00  0.00     0.000 C 
BRANCH  22  23
ATOM     23  C   UNL d   1     111.463 149.444 197.601  0.00  0.00     0.000 C 
BRANCH  23  24
ATOM     24  C   UNL d   1     112.925 149.096 197.292  0.00  0.00     0.000 C 
BRANCH  24  25
ATOM     25  C   UNL d   1     113.959 150.153 197.719  0.00  0.00     0.000 C 
ATOM     26  C   UNL d   1     115.319 149.923 197.053  0.00  0.00     0.000 C 
ATOM     27  C   UNL d   1     113.449 151.556 197.380  0.00  0.00     0.000 C 
ENDBRANCH  24  25
ENDBRANCH  23  24
ENDBRANCH  22  23
ENDBRANCH  20  22
ENDBRANCH   5  20
BRANCH  19  28
ATOM     28  O   UNL d   1     115.796 148.716 210.753  0.00  0.00    -0.385 OA
ATOM     29  H   UNL d   1     115.732 147.921 211.314  0.00  0.00     0.210 HD
ENDBRANCH  19  28
TORSDOF 6
ENDMDL
MODEL 2
REMARK VINA RESULT:    -8.662     38.479     43.052
REMARK INTER + INTRA:         -12.409
REMARK INTER:                 -10.704
REMARK INTRA:                  -1.705
REMARK UNBOUND:                -0.963
REMARK  6 active torsions:
REMARK  status: ('A' for Active; 'I' for Inactive)
REMARK    1  A    between atoms: O_1  and  C_22 
REMARK    2  A    between atoms: C_6  and  C_13 
REMARK    3  A    between atoms: C_13  and  C_21 
REMARK    4  A    between atoms: C_21  and  C_24 
REMARK    5  A    between atoms: C_24  and  C_25 
REMARK    6  A    between atoms: C_25  and  C_26 
ROOT
ATOM      1  C   UNL d   1     126.809 125.713 171.419  0.00  0.00     0.000 C 
ATOM      2  C   UNL d   1     128.278 126.000 171.013  0.00  0.00     0.000 C 
ATOM      3  C   UNL d   1     129.162 124.756 171.120  0.00  0.00     0.005 C 
ATOM      4  C   UNL d   1     128.621 123.641 170.180  0.00  0.00     0.004 C 
ATOM      5  C   UNL d   1     126.200 127.151 171.379  0.00  0.00     0.000 C 
ATOM      6  C   UNL d   1     126.275 124.762 170.331  0.00  0.00     0.000 C 
ATOM      7  C   UNL d   1     129.443 122.300 170.354  0.00  0.00     0.015 C 
ATOM      8  C   UNL d   1     128.651 127.217 171.838  0.00  0.00     0.000 C 
ATOM      9  C   UNL d   1     127.079 123.452 170.268  0.00  0.00     0.000 C 
ATOM     10  C   UNL d   1     127.381 128.070 171.814  0.00  0.00     0.000 C 
ATOM     11  C   UNL d   1     130.629 125.065 170.789  0.00  0.00     0.025 C 
ATOM     12  C   UNL d   1     126.704 125.082 172.830  0.00  0.00     0.000 C 
ATOM     13  C   UNL d   1     130.947 122.594 170.449  0.00  0.00    -0.047 C 
ATOM     14  C   UNL d   1     129.186 121.403 169.109  0.00  0.00     0.006 C 
ATOM     15  C   UNL d   1     131.452 123.827 170.617  0.00  0.00    -0.035 C 
ATOM     16  C   UNL d   1     129.014 121.540 171.634  0.00  0.00     0.004 C 
ATOM     17  C   UNL d   1     131.878 121.403 170.327  0.00  0.00     0.051 C 
ATOM     18  C   UNL d   1     130.100 120.180 169.019  0.00  0.00     0.030 C 
ATOM     19  C   UNL d   1     131.573 120.573 169.082  0.00  0.00     0.115 C 
ENDROOT
BRANCH   5  20
ATOM     20  C   UNL d   1     124.893 127.471 172.185  0.00  0.00     0.000 C 
ATOM     21  C   UNL d   1     123.616 127.214 171.375  0.00  0.00     0.000 C 
BRANCH  20  22
ATOM     22  C   UNL d   1     124.943 128.944 172.686  0.00  0.00     0.000 C 
BRANCH  22  23
ATOM     23  C   UNL d   1     124.759 129.198 174.189  0.00  0.00     0.000 C 
BRANCH  23  24
ATOM     24  C   UNL d   1     126.040 129.422 175.002  0.00  0.00     0.000 C 
BRANCH  24  25
ATOM     25  C   UNL d   1     126.493 128.229 175.863  0.00  0.00     0.000 C 
ATOM     26  C   UNL d   1     125.476 127.084 175.834  0.00  0.00     0.000 C 
ATOM     27  C   UNL d   1     127.856 127.723 175.385  0.00  0.00     0.000 C 
ENDBRANCH  24  25
ENDBRANCH  23  24
ENDBRANCH  22  23
ENDBRANCH  20  22
ENDBRANCH   5  20
BRANCH  19  28
ATOM     28  O   UNL d   1     132.376 119.394 169.109  0.00  0.00    -0.385 OA
ATOM     29  H   UNL d   1     131.789 118.636 168.930  0.00  0.00     0.210 HD
ENDBRANCH  19  28
TORSDOF 6
ENDMDL
MODEL 3
REMARK VINA RESULT:    -8.347     14.629     17.080
REMARK INTER + INTRA:         -11.993
REMARK INTER:                 -10.484
REMARK INTRA:                  -1.509
REMARK UNBOUND:                -0.963
REMARK  6 active torsions:
REMARK  status: ('A' for Active; 'I' for Inactive)
REMARK    1  A    between atoms: O_1  and  C_22 
REMARK    2  A    between atoms: C_6  and  C_13 
REMARK    3  A    between atoms: C_13  and  C_21 
REMARK    4  A    between atoms: C_21  and  C_24 
REMARK    5  A    between atoms: C_24  and  C_25 
REMARK    6  A    between atoms: C_25  and  C_26 
ROOT
ATOM      1  C   UNL d   1     126.836 141.424 198.212  0.00  0.00     0.000 C 
ATOM      2  C   UNL d   1     125.913 140.685 197.209  0.00  0.00     0.000 C 
ATOM      3  C   UNL d   1     124.957 139.716 197.906  0.00  0.00     0.005 C 
ATOM      4  C   UNL d   1     124.048 140.496 198.899  0.00  0.00     0.004 C 
ATOM      5  C   UNL d   1     127.789 142.189 197.238  0.00  0.00     0.000 C 
ATOM      6  C   UNL d   1     125.893 142.329 199.027  0.00  0.00     0.000 C 
ATOM      7  C   UNL d   1     123.126 139.508 199.724  0.00  0.00     0.015 C 
ATOM      8  C   UNL d   1     126.874 140.124 196.177  0.00  0.00     0.000 C 
ATOM      9  C   UNL d   1     124.825 141.517 199.779  0.00  0.00     0.000 C 
ATOM     10  C   UNL d   1     127.912 141.236 196.010  0.00  0.00     0.000 C 
ATOM     11  C   UNL d   1     124.099 138.934 196.901  0.00  0.00     0.025 C 
ATOM     12  C   UNL d   1     127.614 140.443 199.124  0.00  0.00     0.000 C 
ATOM     13  C   UNL d   1     122.548 138.417 198.812  0.00  0.00    -0.047 C 
ATOM     14  C   UNL d   1     121.951 140.328 200.331  0.00  0.00     0.006 C 
ATOM     15  C   UNL d   1     122.976 138.195 197.559  0.00  0.00    -0.035 C 
ATOM     16  C   UNL d   1     123.918 138.822 200.864  0.00  0.00     0.004 C 
ATOM     17  C   UNL d   1     121.427 137.576 199.392  0.00  0.00     0.051 C 
ATOM     18  C   UNL d   1     120.846 139.471 200.953  0.00  0.00     0.030 C 
ATOM     19  C   UNL d   1     120.307 138.443 199.962  0.00  0.00     0.115 C 
ENDROOT
BRANCH   5  20
ATOM     20  C   UNL d   1     129.195 142.673 197.735  0.00  0.00     0.000 C 
ATOM     21  C   UNL d   1     129.416 144.175 197.523  0.00  0.00     0.000 C 
BRANCH  20  22
ATOM     22  C   UNL d   1     130.306 141.844 197.028  0.00  0.00     0.000 C 
BRANCH  22  23
ATOM     23  C   UNL d   1     131.573 141.511 197.829  0.00  0.00     0.000 C 
BRANCH  23  24
ATOM     24  C   UNL d   1     131.359 141.051 199.277  0.00  0.00     0.000 C 
BRANCH  24  25
ATOM     25  C   UNL d   1     131.748 142.075 200.359  0.00  0.00     0.000 C 
ATOM     26  C   UNL d   1     132.479 143.283 199.766  0.00  0.00     0.000 C 
ATOM     27  C   UNL d   1     130.501 142.544 201.112  0.00  0.00     0.000 C 
ENDBRANCH  24  25
ENDBRANCH  23  24
ENDBRANCH  22  23
ENDBRANCH  20  22
ENDBRANCH   5  20
BRANCH  19  28
ATOM     28  O   UNL d   1     119.365 137.600 200.622  0.00  0.00    -0.385 OA
ATOM     29  H   UNL d   1     118.920 138.136 201.304  0.00  0.00     0.210 HD
ENDBRANCH  19  28
TORSDOF 6
ENDMDL
MODEL 4
REMARK VINA RESULT:    -8.334     38.833     43.166
REMARK INTER + INTRA:         -11.977
REMARK INTER:                 -10.613
REMARK INTRA:                  -1.363
REMARK UNBOUND:                -0.963
REMARK  6 active torsions:
REMARK  status: ('A' for Active; 'I' for Inactive)
REMARK    1  A    between atoms: O_1  and  C_22 
REMARK    2  A    between atoms: C_6  and  C_13 
REMARK    3  A    between atoms: C_13  and  C_21 
REMARK    4  A    between atoms: C_21  and  C_24 
REMARK    5  A    between atoms: C_24  and  C_25 
REMARK    6  A    between atoms: C_25  and  C_26 
ROOT
ATOM      1  C   UNL d   1     126.796 124.858 172.624  0.00  0.00     0.000 C 
ATOM      2  C   UNL d   1     128.042 125.616 172.098  0.00  0.00     0.000 C 
ATOM      3  C   UNL d   1     129.215 124.677 171.813  0.00  0.00     0.005 C 
ATOM      4  C   UNL d   1     128.805 123.635 170.732  0.00  0.00     0.004 C 
ATOM      5  C   UNL d   1     125.848 126.047 172.981  0.00  0.00     0.000 C 
ATOM      6  C   UNL d   1     126.324 123.998 171.435  0.00  0.00     0.000 C 
ATOM      7  C   UNL d   1     129.956 122.575 170.497  0.00  0.00     0.015 C 
ATOM      8  C   UNL d   1     128.245 126.726 173.113  0.00  0.00     0.000 C 
ATOM      9  C   UNL d   1     127.405 123.003 170.980  0.00  0.00     0.000 C 
ATOM     10  C   UNL d   1     126.820 127.173 173.446  0.00  0.00     0.000 C 
ATOM     11  C   UNL d   1     130.467 125.443 171.365  0.00  0.00     0.025 C 
ATOM     12  C   UNL d   1     127.119 123.987 173.864  0.00  0.00     0.000 C 
ATOM     13  C   UNL d   1     131.327 123.263 170.453  0.00  0.00    -0.047 C 
ATOM     14  C   UNL d   1     129.704 121.873 169.131  0.00  0.00     0.006 C 
ATOM     15  C   UNL d   1     131.528 124.540 170.818  0.00  0.00    -0.035 C 
ATOM     16  C   UNL d   1     129.979 121.513 171.625  0.00  0.00     0.004 C 
ATOM     17  C   UNL d   1     132.488 122.426 169.951  0.00  0.00     0.051 C 
ATOM     18  C   UNL d   1     130.862 120.995 168.655  0.00  0.00     0.030 C 
ATOM     19  C   UNL d   1     132.174 121.774 168.606  0.00  0.00     0.115 C 
ENDROOT
BRANCH   5  20
ATOM     20  C   UNL d   1     124.678 125.837 174.004  0.00  0.00     0.000 C 
ATOM     21  C   UNL d   1     123.801 124.625 173.665  0.00  0.00     0.000 C 
BRANCH  20  22
ATOM     22  C   UNL d   1     123.822 127.134 174.082  0.00  0.00     0.000 C 
BRANCH  22  23
ATOM     23  C   UNL d   1     123.081 127.583 172.814  0.00  0.00     0.000 C 
BRANCH  23  24
ATOM     24  C   UNL d   1     123.774 128.657 171.967  0.00  0.00     0.000 C 
BRANCH  24  25
ATOM     25  C   UNL d   1     124.147 128.231 170.536  0.00  0.00     0.000 C 
ATOM     26  C   UNL d   1     125.624 128.494 170.228  0.00  0.00     0.000 C 
ATOM     27  C   UNL d   1     123.832 126.747 170.330  0.00  0.00     0.000 C 
ENDBRANCH  24  25
ENDBRANCH  23  24
ENDBRANCH  22  23
ENDBRANCH  20  22
ENDBRANCH   5  20
BRANCH  19  28
ATOM     28  O   UNL d   1     133.238 120.886 168.267  0.00  0.00    -0.385 OA
ATOM     29  H   UNL d   1     133.803 121.342 167.616  0.00  0.00     0.210 HD
ENDBRANCH  19  28
TORSDOF 6
ENDMDL
MODEL 5
REMARK VINA RESULT:    -8.264     38.883     43.322
REMARK INTER + INTRA:         -11.884
REMARK INTER:                 -10.679
REMARK INTRA:                  -1.205
REMARK UNBOUND:                -0.963
REMARK  6 active torsions:
REMARK  status: ('A' for Active; 'I' for Inactive)
REMARK    1  A    between atoms: O_1  and  C_22 
REMARK    2  A    between atoms: C_6  and  C_13 
REMARK    3  A    between atoms: C_13  and  C_21 
REMARK    4  A    between atoms: C_21  and  C_24 
REMARK    5  A    between atoms: C_24  and  C_25 
REMARK    6  A    between atoms: C_25  and  C_26 
ROOT
ATOM      1  C   UNL d   1     126.267 124.774 171.077  0.00  0.00     0.000 C 
ATOM      2  C   UNL d   1     126.760 123.671 172.049  0.00  0.00     0.000 C 
ATOM      3  C   UNL d   1     127.844 122.791 171.425  0.00  0.00     0.005 C 
ATOM      4  C   UNL d   1     129.073 123.663 171.037  0.00  0.00     0.004 C 
ATOM      5  C   UNL d   1     125.083 125.387 171.892  0.00  0.00     0.000 C 
ATOM      6  C   UNL d   1     127.475 125.715 170.898  0.00  0.00     0.000 C 
ATOM      7  C   UNL d   1     130.166 122.804 170.281  0.00  0.00     0.015 C 
ATOM      8  C   UNL d   1     125.481 123.005 172.520  0.00  0.00     0.000 C 
ATOM      9  C   UNL d   1     128.690 124.982 170.305  0.00  0.00     0.000 C 
ATOM     10  C   UNL d   1     124.506 124.174 172.682  0.00  0.00     0.000 C 
ATOM     11  C   UNL d   1     128.273 121.656 172.365  0.00  0.00     0.025 C 
ATOM     12  C   UNL d   1     125.792 124.193 169.722  0.00  0.00     0.000 C 
ATOM     13  C   UNL d   1     130.347 121.439 170.959  0.00  0.00    -0.047 C 
ATOM     14  C   UNL d   1     131.518 123.573 170.336  0.00  0.00     0.006 C 
ATOM     15  C   UNL d   1     129.512 120.960 171.896  0.00  0.00    -0.035 C 
ATOM     16  C   UNL d   1     129.769 122.565 168.803  0.00  0.00     0.004 C 
ATOM     17  C   UNL d   1     131.553 120.625 170.530  0.00  0.00     0.051 C 
ATOM     18  C   UNL d   1     132.722 122.759 169.859  0.00  0.00     0.030 C 
ATOM     19  C   UNL d   1     132.843 121.439 170.615  0.00  0.00     0.115 C 
ENDROOT
BRANCH   5  20
ATOM     20  C   UNL d   1     123.953 126.185 171.154  0.00  0.00     0.000 C 
ATOM     21  C   UNL d   1     124.492 127.077 170.029  0.00  0.00     0.000 C 
BRANCH  20  22
ATOM     22  C   UNL d   1     123.153 127.025 172.191  0.00  0.00     0.000 C 
BRANCH  22  23
ATOM     23  C   UNL d   1     123.941 127.725 173.309  0.00  0.00     0.000 C 
BRANCH  23  24
ATOM     24  C   UNL d   1     124.594 129.064 172.943  0.00  0.00     0.000 C 
BRANCH  24  25
ATOM     25  C   UNL d   1     126.112 129.146 173.184  0.00  0.00     0.000 C 
ATOM     26  C   UNL d   1     126.648 127.893 173.883  0.00  0.00     0.000 C 
ATOM     27  C   UNL d   1     126.845 129.352 171.856  0.00  0.00     0.000 C 
ENDBRANCH  24  25
ENDBRANCH  23  24
ENDBRANCH  22  23
ENDBRANCH  20  22
ENDBRANCH   5  20
BRANCH  19  28
ATOM     28  O   UNL d   1     133.908 120.671 170.058  0.00  0.00    -0.385 OA
ATOM     29  H   UNL d   1     134.603 120.598 170.737  0.00  0.00     0.210 HD
ENDBRANCH  19  28
TORSDOF 6
ENDMDL
MODEL 6
REMARK VINA RESULT:    -8.232     38.088     42.595
REMARK INTER + INTRA:         -11.841
REMARK INTER:                 -10.217
REMARK INTRA:                  -1.624
REMARK UNBOUND:                -0.963
REMARK  6 active torsions:
REMARK  status: ('A' for Active; 'I' for Inactive)
REMARK    1  A    between atoms: O_1  and  C_22 
REMARK    2  A    between atoms: C_6  and  C_13 
REMARK    3  A    between atoms: C_13  and  C_21 
REMARK    4  A    between atoms: C_21  and  C_24 
REMARK    5  A    between atoms: C_24  and  C_25 
REMARK    6  A    between atoms: C_25  and  C_26 
ROOT
ATOM      1  C   UNL d   1     128.723 126.405 173.073  0.00  0.00     0.000 C 
ATOM      2  C   UNL d   1     128.674 124.966 173.649  0.00  0.00     0.000 C 
ATOM      3  C   UNL d   1     128.937 123.904 172.579  0.00  0.00     0.005 C 
ATOM      4  C   UNL d   1     130.348 124.118 171.960  0.00  0.00     0.004 C 
ATOM      5  C   UNL d   1     128.264 127.240 174.311  0.00  0.00     0.000 C 
ATOM      6  C   UNL d   1     130.194 126.620 172.666  0.00  0.00     0.000 C 
ATOM      7  C   UNL d   1     130.606 123.110 170.768  0.00  0.00     0.015 C 
ATOM      8  C   UNL d   1     127.354 124.918 174.395  0.00  0.00     0.000 C 
ATOM      9  C   UNL d   1     130.651 125.603 171.606  0.00  0.00     0.000 C 
ATOM     10  C   UNL d   1     127.258 126.301 175.043  0.00  0.00     0.000 C 
ATOM     11  C   UNL d   1     128.813 122.481 173.141  0.00  0.00     0.025 C 
ATOM     12  C   UNL d   1     127.765 126.587 171.869  0.00  0.00     0.000 C 
ATOM     13  C   UNL d   1     130.105 121.704 171.128  0.00  0.00    -0.047 C 
ATOM     14  C   UNL d   1     132.139 123.043 170.506  0.00  0.00     0.006 C 
ATOM     15  C   UNL d   1     129.333 121.444 172.196  0.00  0.00    -0.035 C 
ATOM     16  C   UNL d   1     129.883 123.569 169.478  0.00  0.00     0.004 C 
ATOM     17  C   UNL d   1     130.539 120.576 170.212  0.00  0.00     0.051 C 
ATOM     18  C   UNL d   1     132.562 121.930 169.546  0.00  0.00     0.030 C 
ATOM     19  C   UNL d   1     132.052 120.566 170.005  0.00  0.00     0.115 C 
ENDROOT
BRANCH   5  20
ATOM     20  C   UNL d   1     127.669 128.677 174.110  0.00  0.00     0.000 C 
ATOM     21  C   UNL d   1     128.732 129.779 174.199  0.00  0.00     0.000 C 
BRANCH  20  22
ATOM     22  C   UNL d   1     126.536 128.917 175.150  0.00  0.00     0.000 C 
BRANCH  22  23
ATOM     23  C   UNL d   1     125.114 129.153 174.620  0.00  0.00     0.000 C 
BRANCH  23  24
ATOM     24  C   UNL d   1     124.833 128.672 173.191  0.00  0.00     0.000 C 
BRANCH  24  25
ATOM     25  C   UNL d   1     124.237 127.257 173.076  0.00  0.00     0.000 C 
ATOM     26  C   UNL d   1     123.678 126.763 174.413  0.00  0.00     0.000 C 
ATOM     27  C   UNL d   1     123.134 127.236 172.014  0.00  0.00     0.000 C 
ENDBRANCH  24  25
ENDBRANCH  23  24
ENDBRANCH  22  23
ENDBRANCH  20  22
ENDBRANCH   5  20
BRANCH  19  28
ATOM     28  O   UNL d   1     132.375 119.585 169.022  0.00  0.00    -0.385 OA
ATOM     29  H   UNL d   1     131.554 119.105 168.807  0.00  0.00     0.210 HD
ENDBRANCH  19  28
TORSDOF 6
ENDMDL
MODEL 7
REMARK VINA RESULT:    -8.093     15.554     17.636
REMARK INTER + INTRA:         -11.658
REMARK INTER:                 -10.186
REMARK INTRA:                  -1.472
REMARK UNBOUND:                -0.963
REMARK  6 active torsions:
REMARK  status: ('A' for Active; 'I' for Inactive)
REMARK    1  A    between atoms: O_1  and  C_22 
REMARK    2  A    between atoms: C_6  and  C_13 
REMARK    3  A    between atoms: C_13  and  C_21 
REMARK    4  A    between atoms: C_21  and  C_24 
REMARK    5  A    between atoms: C_24  and  C_25 
REMARK    6  A    between atoms: C_25  and  C_26 
ROOT
ATOM      1  C   UNL d   1     127.943 142.441 198.134  0.00  0.00     0.000 C 
ATOM      2  C   UNL d   1     127.840 143.088 199.539  0.00  0.00     0.000 C 
ATOM      3  C   UNL d   1     129.042 142.751 200.423  0.00  0.00     0.005 C 
ATOM      4  C   UNL d   1     130.348 143.273 199.758  0.00  0.00     0.004 C 
ATOM      5  C   UNL d   1     126.547 142.800 197.533  0.00  0.00     0.000 C 
ATOM      6  C   UNL d   1     129.133 143.150 197.457  0.00  0.00     0.000 C 
ATOM      7  C   UNL d   1     131.623 142.839 200.587  0.00  0.00     0.015 C 
ATOM      8  C   UNL d   1     126.460 142.683 200.024  0.00  0.00     0.000 C 
ATOM      9  C   UNL d   1     130.442 142.947 198.239  0.00  0.00     0.000 C 
ATOM     10  C   UNL d   1     125.594 142.785 198.766  0.00  0.00     0.000 C 
ATOM     11  C   UNL d   1     128.896 143.333 201.836  0.00  0.00     0.025 C 
ATOM     12  C   UNL d   1     128.160 140.909 198.209  0.00  0.00     0.000 C 
ATOM     13  C   UNL d   1     131.377 143.015 202.092  0.00  0.00    -0.047 C 
ATOM     14  C   UNL d   1     132.815 143.747 200.165  0.00  0.00     0.006 C 
ATOM     15  C   UNL d   1     130.167 143.257 202.622  0.00  0.00    -0.035 C 
ATOM     16  C   UNL d   1     131.987 141.357 200.323  0.00  0.00     0.004 C 
ATOM     17  C   UNL d   1     132.594 142.916 202.992  0.00  0.00     0.051 C 
ATOM     18  C   UNL d   1     134.053 143.608 201.053  0.00  0.00     0.030 C 
ATOM     19  C   UNL d   1     133.719 143.837 202.524  0.00  0.00     0.115 C 
ENDROOT
BRANCH   5  20
ATOM     20  C   UNL d   1     125.966 141.960 196.344  0.00  0.00     0.000 C 
ATOM     21  C   UNL d   1     125.691 142.806 195.095  0.00  0.00     0.000 C 
BRANCH  20  22
ATOM     22  C   UNL d   1     124.674 141.229 196.812  0.00  0.00     0.000 C 
BRANCH  22  23
ATOM     23  C   UNL d   1     124.790 139.750 197.210  0.00  0.00     0.000 C 
BRANCH  23  24
ATOM     24  C   UNL d   1     123.569 139.135 197.904  0.00  0.00     0.000 C 
BRANCH  24  25
ATOM     25  C   UNL d   1     123.551 139.257 199.439  0.00  0.00     0.000 C 
ATOM     26  C   UNL d   1     124.966 139.312 200.023  0.00  0.00     0.000 C 
ATOM     27  C   UNL d   1     122.769 140.503 199.859  0.00  0.00     0.000 C 
ENDBRANCH  24  25
ENDBRANCH  23  24
ENDBRANCH  22  23
ENDBRANCH  20  22
ENDBRANCH   5  20
BRANCH  19  28
ATOM     28  O   UNL d   1     134.878 143.585 203.317  0.00  0.00    -0.385 OA
ATOM     29  H   UNL d   1     134.807 142.675 203.658  0.00  0.00     0.210 HD
ENDBRANCH  19  28
TORSDOF 6
ENDMDL
MODEL 8
REMARK VINA RESULT:    -7.938     14.398     16.729
REMARK INTER + INTRA:         -11.453
REMARK INTER:                  -9.926
REMARK INTRA:                  -1.527
REMARK UNBOUND:                -0.963
REMARK  6 active torsions:
REMARK  status: ('A' for Active; 'I' for Inactive)
REMARK    1  A    between atoms: O_1  and  C_22 
REMARK    2  A    between atoms: C_6  and  C_13 
REMARK    3  A    between atoms: C_13  and  C_21 
REMARK    4  A    between atoms: C_21  and  C_24 
REMARK    5  A    between atoms: C_24  and  C_25 
REMARK    6  A    between atoms: C_25  and  C_26 
ROOT
ATOM      1  C   UNL d   1     125.049 139.061 199.809  0.00  0.00     0.000 C 
ATOM      2  C   UNL d   1     125.455 139.868 198.550  0.00  0.00     0.000 C 
ATOM      3  C   UNL d   1     126.552 140.892 198.846  0.00  0.00     0.005 C 
ATOM      4  C   UNL d   1     127.824 140.166 199.372  0.00  0.00     0.004 C 
ATOM      5  C   UNL d   1     123.835 138.243 199.265  0.00  0.00     0.000 C 
ATOM      6  C   UNL d   1     126.288 138.213 200.155  0.00  0.00     0.000 C 
ATOM      7  C   UNL d   1     128.938 141.204 199.800  0.00  0.00     0.015 C 
ATOM      8  C   UNL d   1     124.134 140.374 198.001  0.00  0.00     0.000 C 
ATOM      9  C   UNL d   1     127.518 139.087 200.452  0.00  0.00     0.000 C 
ATOM     10  C   UNL d   1     123.181 139.196 198.219  0.00  0.00     0.000 C 
ATOM     11  C   UNL d   1     126.896 141.738 197.611  0.00  0.00     0.025 C 
ATOM     12  C   UNL d   1     124.641 139.980 200.988  0.00  0.00     0.000 C 
ATOM     13  C   UNL d   1     129.044 142.340 198.772  0.00  0.00    -0.047 C 
ATOM     14  C   UNL d   1     130.303 140.459 199.865  0.00  0.00     0.006 C 
ATOM     15  C   UNL d   1     128.143 142.544 197.797  0.00  0.00    -0.035 C 
ATOM     16  C   UNL d   1     128.625 141.826 201.183  0.00  0.00     0.004 C 
ATOM     17  C   UNL d   1     130.253 143.248 198.891  0.00  0.00     0.051 C 
ATOM     18  C   UNL d   1     131.512 141.381 200.029  0.00  0.00     0.030 C 
ATOM     19  C   UNL d   1     131.555 142.452 198.943  0.00  0.00     0.115 C 
ENDROOT
BRANCH   5  20
ATOM     20  C   UNL d   1     122.771 137.663 200.260  0.00  0.00     0.000 C 
ATOM     21  C   UNL d   1     122.997 136.179 200.574  0.00  0.00     0.000 C 
BRANCH  20  22
ATOM     22  C   UNL d   1     121.344 137.895 199.683  0.00  0.00     0.000 C 
BRANCH  22  23
ATOM     23  C   UNL d   1     120.310 138.588 200.583  0.00  0.00     0.000 C 
BRANCH  23  24
ATOM     24  C   UNL d   1     120.870 139.416 201.747  0.00  0.00     0.000 C 
BRANCH  24  25
ATOM     25  C   UNL d   1     121.111 140.905 201.441  0.00  0.00     0.000 C 
ATOM     26  C   UNL d   1     120.493 141.321 200.103  0.00  0.00     0.000 C 
ATOM     27  C   UNL d   1     120.541 141.773 202.566  0.00  0.00     0.000 C 
ENDBRANCH  24  25
ENDBRANCH  23  24
ENDBRANCH  22  23
ENDBRANCH  20  22
ENDBRANCH   5  20
BRANCH  19  28
ATOM     28  O   UNL d   1     132.632 143.350 199.206  0.00  0.00    -0.385 OA
ATOM     29  H   UNL d   1     132.260 144.127 199.662  0.00  0.00     0.210 HD
ENDBRANCH  19  28
TORSDOF 6
ENDMDL
MODEL 9
REMARK VINA RESULT:    -7.910     15.133     17.284
REMARK INTER + INTRA:         -11.416
REMARK INTER:                 -10.094
REMARK INTRA:                  -1.322
REMARK UNBOUND:                -0.963
REMARK  6 active torsions:
REMARK  status: ('A' for Active; 'I' for Inactive)
REMARK    1  A    between atoms: O_1  and  C_22 
REMARK    2  A    between atoms: C_6  and  C_13 
REMARK    3  A    between atoms: C_13  and  C_21 
REMARK    4  A    between atoms: C_21  and  C_24 
REMARK    5  A    between atoms: C_24  and  C_25 
REMARK    6  A    between atoms: C_25  and  C_26 
ROOT
ATOM      1  C   UNL d   1     125.648 141.168 198.380  0.00  0.00     0.000 C 
ATOM      2  C   UNL d   1     124.864 140.917 197.067  0.00  0.00     0.000 C 
ATOM      3  C   UNL d   1     124.380 139.471 196.948  0.00  0.00     0.005 C 
ATOM      4  C   UNL d   1     123.433 139.133 198.135  0.00  0.00     0.004 C 
ATOM      5  C   UNL d   1     126.151 142.630 198.157  0.00  0.00     0.000 C 
ATOM      6  C   UNL d   1     124.602 141.016 199.502  0.00  0.00     0.000 C 
ATOM      7  C   UNL d   1     123.007 137.609 198.108  0.00  0.00     0.015 C 
ATOM      8  C   UNL d   1     125.784 141.454 195.987  0.00  0.00     0.000 C 
ATOM      9  C   UNL d   1     123.973 139.612 199.513  0.00  0.00     0.000 C 
ATOM     10  C   UNL d   1     126.380 142.716 196.617  0.00  0.00     0.000 C 
ATOM     11  C   UNL d   1     123.670 139.212 195.611  0.00  0.00     0.025 C 
ATOM     12  C   UNL d   1     126.825 140.177 198.559  0.00  0.00     0.000 C 
ATOM     13  C   UNL d   1     122.671 137.165 196.677  0.00  0.00    -0.047 C 
ATOM     14  C   UNL d   1     121.739 137.439 198.995  0.00  0.00     0.006 C 
ATOM     15  C   UNL d   1     122.951 137.899 195.588  0.00  0.00    -0.035 C 
ATOM     16  C   UNL d   1     124.138 136.700 198.648  0.00  0.00     0.004 C 
ATOM     17  C   UNL d   1     121.974 135.826 196.531  0.00  0.00     0.051 C 
ATOM     18  C   UNL d   1     121.069 136.069 198.874  0.00  0.00     0.030 C 
ATOM     19  C   UNL d   1     120.738 135.731 197.423  0.00  0.00     0.115 C 
ENDROOT
BRANCH   5  20
ATOM     20  C   UNL d   1     127.390 143.164 198.954  0.00  0.00     0.000 C 
ATOM     21  C   UNL d   1     126.997 144.054 200.140  0.00  0.00     0.000 C 
BRANCH  20  22
ATOM     22  C   UNL d   1     128.341 143.924 197.984  0.00  0.00     0.000 C 
BRANCH  22  23
ATOM     23  C   UNL d   1     129.831 143.551 198.000  0.00  0.00     0.000 C 
BRANCH  23  24
ATOM     24  C   UNL d   1     130.184 142.190 198.614  0.00  0.00     0.000 C 
BRANCH  24  25
ATOM     25  C   UNL d   1     131.142 142.237 199.818  0.00  0.00     0.000 C 
ATOM     26  C   UNL d   1     132.286 143.231 199.599  0.00  0.00     0.000 C 
ATOM     27  C   UNL d   1     130.372 142.606 201.088  0.00  0.00     0.000 C 
ENDBRANCH  24  25
ENDBRANCH  23  24
ENDBRANCH  22  23
ENDBRANCH  20  22
ENDBRANCH   5  20
BRANCH  19  28
ATOM     28  O   UNL d   1     120.222 134.403 197.353  0.00  0.00    -0.385 OA
ATOM     29  H   UNL d   1     120.966 133.792 197.501  0.00  0.00     0.210 HD
ENDBRANCH  19  28
TORSDOF 6
ENDMDL
MODEL 10
REMARK VINA RESULT:    -7.891     42.091     46.369
REMARK INTER + INTRA:         -11.391
REMARK INTER:                  -9.717
REMARK INTRA:                  -1.675
REMARK UNBOUND:                -0.963
REMARK  6 active torsions:
REMARK  status: ('A' for Active; 'I' for Inactive)
REMARK    1  A    between atoms: O_1  and  C_22 
REMARK    2  A    between atoms: C_6  and  C_13 
REMARK    3  A    between atoms: C_13  and  C_21 
REMARK    4  A    between atoms: C_21  and  C_24 
REMARK    5  A    between atoms: C_24  and  C_25 
REMARK    6  A    between atoms: C_25  and  C_26 
ROOT
ATOM      1  C   UNL d   1     129.565 122.238 171.142  0.00  0.00     0.000 C 
ATOM      2  C   UNL d   1     129.120 121.014 171.984  0.00  0.00     0.000 C 
ATOM      3  C   UNL d   1     128.910 119.766 171.126  0.00  0.00     0.005 C 
ATOM      4  C   UNL d   1     130.238 119.388 170.409  0.00  0.00     0.004 C 
ATOM      5  C   UNL d   1     129.537 123.370 172.218  0.00  0.00     0.000 C 
ATOM      6  C   UNL d   1     130.973 121.877 170.630  0.00  0.00     0.000 C 
ATOM      7  C   UNL d   1     130.027 118.170 169.421  0.00  0.00     0.015 C 
ATOM      8  C   UNL d   1     127.944 121.536 172.788  0.00  0.00     0.000 C 
ATOM      9  C   UNL d   1     130.961 120.606 169.764  0.00  0.00     0.000 C 
ATOM     10  C   UNL d   1     128.369 122.958 173.164  0.00  0.00     0.000 C 
ATOM     11  C   UNL d   1     128.397 118.579 171.955  0.00  0.00     0.025 C 
ATOM     12  C   UNL d   1     128.592 122.531 169.973  0.00  0.00     0.000 C 
ATOM     13  C   UNL d   1     129.143 117.094 170.068  0.00  0.00    -0.047 C 
ATOM     14  C   UNL d   1     131.419 117.550 169.103  0.00  0.00     0.006 C 
ATOM     15  C   UNL d   1     128.449 117.287 171.201  0.00  0.00    -0.035 C 
ATOM     16  C   UNL d   1     129.353 118.627 168.103  0.00  0.00     0.004 C 
ATOM     17  C   UNL d   1     129.089 115.751 169.364  0.00  0.00     0.051 C 
ATOM     18  C   UNL d   1     131.354 116.218 168.354  0.00  0.00     0.030 C 
ATOM     19  C   UNL d   1     130.487 115.200 169.090  0.00  0.00     0.115 C 
ENDROOT
BRANCH   5  20
ATOM     20  C   UNL d   1     129.417 124.869 171.775  0.00  0.00     0.000 C 
ATOM     21  C   UNL d   1     130.697 125.672 172.038  0.00  0.00     0.000 C 
BRANCH  20  22
ATOM     22  C   UNL d   1     128.198 125.523 172.488  0.00  0.00     0.000 C 
BRANCH  22  23
ATOM     23  C   UNL d   1     127.168 126.260 171.619  0.00  0.00     0.000 C 
BRANCH  23  24
ATOM     24  C   UNL d   1     125.749 125.678 171.607  0.00  0.00     0.000 C 
BRANCH  24  25
ATOM     25  C   UNL d   1     125.628 124.244 171.060  0.00  0.00     0.000 C 
ATOM     26  C   UNL d   1     124.740 123.367 171.948  0.00  0.00     0.000 C 
ATOM     27  C   UNL d   1     125.068 124.271 169.635  0.00  0.00     0.000 C 
ENDBRANCH  24  25
ENDBRANCH  23  24
ENDBRANCH  22  23
ENDBRANCH  20  22
ENDBRANCH   5  20
BRANCH  19  28
ATOM     28  O   UNL d   1     130.368 114.020 168.298  0.00  0.00    -0.385 OA
ATOM     29  H   UNL d   1     130.246 114.300 167.372  0.00  0.00     0.210 HD
ENDBRANCH  19  28
TORSDOF 6
ENDMDL
