MODEL 1
REMARK VINA RESULT:    -8.083      0.000      0.000
REMARK INTER + INTRA:         -12.419
REMARK INTER:                 -10.683
REMARK INTRA:                  -1.736
REMARK UNBOUND:                -1.736
REMARK  6 active torsions:
REMARK  status: ('A' for Active; 'I' for Inactive)
REMARK    1  A    between atoms: O_1  and  C_22 
REMARK    2  A    between atoms: C_6  and  C_13 
REMARK    3  A    between atoms: C_13  and  C_21 
REMARK    4  A    between atoms: C_21  and  C_24 
REMARK    5  A    between atoms: C_24  and  C_25 
REMARK    6  A    between atoms: C_25  and  C_26 
ROOT
ATOM      1  C   UNL d   1     126.803 125.709 171.440  0.00  0.00     0.000 C 
ATOM      2  C   UNL d   1     128.258 125.993 170.986  0.00  0.00     0.000 C 
ATOM      3  C   UNL d   1     129.154 124.759 171.104  0.00  0.00     0.005 C 
ATOM      4  C   UNL d   1     128.595 123.615 170.210  0.00  0.00     0.004 C 
ATOM      5  C   UNL d   1     126.183 127.142 171.378  0.00  0.00     0.000 C 
ATOM      6  C   UNL d   1     126.246 124.725 170.394  0.00  0.00     0.000 C 
ATOM      7  C   UNL d   1     129.431 122.284 170.398  0.00  0.00     0.015 C 
ATOM      8  C   UNL d   1     128.646 127.235 171.767  0.00  0.00     0.000 C 
ATOM      9  C   UNL d   1     127.057 123.418 170.345  0.00  0.00     0.000 C 
ATOM     10  C   UNL d   1     127.369 128.080 171.755  0.00  0.00     0.000 C 
ATOM     11  C   UNL d   1     130.609 125.068 170.724  0.00  0.00     0.025 C 
ATOM     12  C   UNL d   1     126.740 125.117 172.871  0.00  0.00     0.000 C 
ATOM     13  C   UNL d   1     130.934 122.590 170.444  0.00  0.00    -0.047 C 
ATOM     14  C   UNL d   1     129.146 121.351 169.185  0.00  0.00     0.006 C 
ATOM     15  C   UNL d   1     131.435 123.830 170.564  0.00  0.00    -0.035 C 
ATOM     16  C   UNL d   1     129.041 121.558 171.709  0.00  0.00     0.004 C 
ATOM     17  C   UNL d   1     131.869 121.401 170.330  0.00  0.00     0.051 C 
ATOM     18  C   UNL d   1     130.065 120.132 169.104  0.00  0.00     0.030 C 
ATOM     19  C   UNL d   1     131.537 120.535 169.116  0.00  0.00     0.115 C 
ENDROOT
BRANCH   5  20
ATOM     20  C   UNL d   1     124.897 127.476 172.210  0.00  0.00     0.000 C 
ATOM     21  C   UNL d   1     123.600 127.203 171.437  0.00  0.00     0.000 C 
BRANCH  20  22
ATOM     22  C   UNL d   1     124.958 128.958 172.682  0.00  0.00     0.000 C 
BRANCH  22  23
ATOM     23  C   UNL d   1     124.820 129.238 174.186  0.00  0.00     0.000 C 
BRANCH  23  24
ATOM     24  C   UNL d   1     126.128 129.433 174.962  0.00  0.00     0.000 C 
BRANCH  24  25
ATOM     25  C   UNL d   1     126.552 128.249 175.850  0.00  0.00     0.000 C 
ATOM     26  C   UNL d   1     125.501 127.134 175.855  0.00  0.00     0.000 C 
ATOM     27  C   UNL d   1     127.896 127.690 175.377  0.00  0.00     0.000 C 
ENDBRANCH  24  25
ENDBRANCH  23  24
ENDBRANCH  22  23
ENDBRANCH  20  22
ENDBRANCH   5  20
BRANCH  19  28
ATOM     28  O   UNL d   1     132.349 119.363 169.154  0.00  0.00    -0.385 OA
ATOM     29  H   UNL d   1     132.538 119.108 168.232  0.00  0.00     0.210 HD
ENDBRANCH  19  28
TORSDOF 6
ENDMDL
MODEL 2
REMARK VINA RESULT:    -7.933      1.464      2.888
REMARK INTER + INTRA:         -12.220
REMARK INTER:                 -10.937
REMARK INTRA:                  -1.283
REMARK UNBOUND:                -1.736
REMARK  6 active torsions:
REMARK  status: ('A' for Active; 'I' for Inactive)
REMARK    1  A    between atoms: O_1  and  C_22 
REMARK    2  A    between atoms: C_6  and  C_13 
REMARK    3  A    between atoms: C_13  and  C_21 
REMARK    4  A    between atoms: C_21  and  C_24 
REMARK    5  A    between atoms: C_24  and  C_25 
REMARK    6  A    between atoms: C_25  and  C_26 
ROOT
ATOM      1  C   UNL d   1     126.540 124.636 171.036  0.00  0.00     0.000 C 
ATOM      2  C   UNL d   1     127.020 123.467 171.934  0.00  0.00     0.000 C 
ATOM      3  C   UNL d   1     128.128 122.645 171.274  0.00  0.00     0.005 C 
ATOM      4  C   UNL d   1     129.357 123.554 170.984  0.00  0.00     0.004 C 
ATOM      5  C   UNL d   1     125.331 125.176 171.864  0.00  0.00     0.000 C 
ATOM      6  C   UNL d   1     127.743 125.597 170.959  0.00  0.00     0.000 C 
ATOM      7  C   UNL d   1     130.477 122.763 170.194  0.00  0.00     0.015 C 
ATOM      8  C   UNL d   1     125.737 122.757 172.322  0.00  0.00     0.000 C 
ATOM      9  C   UNL d   1     128.980 124.921 170.343  0.00  0.00     0.000 C 
ATOM     10  C   UNL d   1     124.746 123.903 172.547  0.00  0.00     0.000 C 
ATOM     11  C   UNL d   1     128.545 121.446 172.137  0.00  0.00     0.025 C 
ATOM     12  C   UNL d   1     126.105 124.154 169.630  0.00  0.00     0.000 C 
ATOM     13  C   UNL d   1     130.655 121.352 170.773  0.00  0.00    -0.047 C 
ATOM     14  C   UNL d   1     131.820 123.537 170.341  0.00  0.00     0.006 C 
ATOM     15  C   UNL d   1     129.802 120.797 171.649  0.00  0.00    -0.035 C 
ATOM     16  C   UNL d   1     130.120 122.632 168.693  0.00  0.00     0.004 C 
ATOM     17  C   UNL d   1     131.879 120.583 170.314  0.00  0.00     0.051 C 
ATOM     18  C   UNL d   1     133.043 122.770 169.835  0.00  0.00     0.030 C 
ATOM     19  C   UNL d   1     133.158 121.398 170.493  0.00  0.00     0.115 C 
ENDROOT
BRANCH   5  20
ATOM     20  C   UNL d   1     124.212 126.018 171.160  0.00  0.00     0.000 C 
ATOM     21  C   UNL d   1     124.750 127.298 170.508  0.00  0.00     0.000 C 
BRANCH  20  22
ATOM     22  C   UNL d   1     123.091 126.350 172.188  0.00  0.00     0.000 C 
BRANCH  22  23
ATOM     23  C   UNL d   1     123.321 127.530 173.144  0.00  0.00     0.000 C 
BRANCH  23  24
ATOM     24  C   UNL d   1     123.742 127.172 174.575  0.00  0.00     0.000 C 
BRANCH  24  25
ATOM     25  C   UNL d   1     125.036 127.844 175.070  0.00  0.00     0.000 C 
ATOM     26  C   UNL d   1     126.260 126.948 174.863  0.00  0.00     0.000 C 
ATOM     27  C   UNL d   1     125.244 129.179 174.351  0.00  0.00     0.000 C 
ENDBRANCH  24  25
ENDBRANCH  23  24
ENDBRANCH  22  23
ENDBRANCH  20  22
ENDBRANCH   5  20
BRANCH  19  28
ATOM     28  O   UNL d   1     134.244 120.682 169.906  0.00  0.00    -0.385 OA
ATOM     29  H   UNL d   1     134.839 121.337 169.496  0.00  0.00     0.210 HD
ENDBRANCH  19  28
TORSDOF 6
ENDMDL
MODEL 3
REMARK VINA RESULT:    -7.766      1.411      3.330
REMARK INTER + INTRA:         -11.999
REMARK INTER:                 -10.317
REMARK INTRA:                  -1.682
REMARK UNBOUND:                -1.736
REMARK  6 active torsions:
REMARK  status: ('A' for Active; 'I' for Inactive)
REMARK    1  A    between atoms: O_1  and  C_22 
REMARK    2  A    between atoms: C_6  and  C_13 
REMARK    3  A    between atoms: C_13  and  C_21 
REMARK    4  A    between atoms: C_21  and  C_24 
REMARK    5  A    between atoms: C_24  and  C_25 
REMARK    6  A    between atoms: C_25  and  C_26 
ROOT
ATOM      1  C   UNL d   1     128.547 126.400 173.006  0.00  0.00     0.000 C 
ATOM      2  C   UNL d   1     128.652 124.982 173.624  0.00  0.00     0.000 C 
ATOM      3  C   UNL d   1     128.985 123.917 172.579  0.00  0.00     0.005 C 
ATOM      4  C   UNL d   1     130.352 124.243 171.910  0.00  0.00     0.004 C 
ATOM      5  C   UNL d   1     128.044 127.227 174.232  0.00  0.00     0.000 C 
ATOM      6  C   UNL d   1     129.978 126.741 172.548  0.00  0.00     0.000 C 
ATOM      7  C   UNL d   1     130.671 123.226 170.741  0.00  0.00     0.015 C 
ATOM      8  C   UNL d   1     127.363 124.833 174.412  0.00  0.00     0.000 C 
ATOM      9  C   UNL d   1     130.501 125.738 171.505  0.00  0.00     0.000 C 
ATOM     10  C   UNL d   1     127.154 126.221 175.023  0.00  0.00     0.000 C 
ATOM     11  C   UNL d   1     129.014 122.507 173.185  0.00  0.00     0.025 C 
ATOM     12  C   UNL d   1     127.543 126.453 171.827  0.00  0.00     0.000 C 
ATOM     13  C   UNL d   1     130.317 121.792 171.157  0.00  0.00    -0.047 C 
ATOM     14  C   UNL d   1     132.196 123.296 170.434  0.00  0.00     0.006 C 
ATOM     15  C   UNL d   1     129.603 121.493 172.255  0.00  0.00    -0.035 C 
ATOM     16  C   UNL d   1     129.872 123.573 169.460  0.00  0.00     0.004 C 
ATOM     17  C   UNL d   1     130.832 120.681 170.261  0.00  0.00     0.051 C 
ATOM     18  C   UNL d   1     132.696 122.198 169.494  0.00  0.00     0.030 C 
ATOM     19  C   UNL d   1     132.332 120.808 170.008  0.00  0.00     0.115 C 
ENDROOT
BRANCH   5  20
ATOM     20  C   UNL d   1     127.310 128.594 174.009  0.00  0.00     0.000 C 
ATOM     21  C   UNL d   1     128.226 129.805 174.228  0.00  0.00     0.000 C 
BRANCH  20  22
ATOM     22  C   UNL d   1     126.063 128.668 174.936  0.00  0.00     0.000 C 
BRANCH  22  23
ATOM     23  C   UNL d   1     124.686 128.838 174.276  0.00  0.00     0.000 C 
BRANCH  23  24
ATOM     24  C   UNL d   1     124.608 128.517 172.778  0.00  0.00     0.000 C 
BRANCH  24  25
ATOM     25  C   UNL d   1     123.642 127.381 172.395  0.00  0.00     0.000 C 
ATOM     26  C   UNL d   1     123.796 126.971 170.928  0.00  0.00     0.000 C 
ATOM     27  C   UNL d   1     123.873 126.168 173.299  0.00  0.00     0.000 C 
ENDBRANCH  24  25
ENDBRANCH  23  24
ENDBRANCH  22  23
ENDBRANCH  20  22
ENDBRANCH   5  20
BRANCH  19  28
ATOM     28  O   UNL d   1     132.720 119.831 169.044  0.00  0.00    -0.385 OA
ATOM     29  H   UNL d   1     132.474 120.174 168.166  0.00  0.00     0.210 HD
ENDBRANCH  19  28
TORSDOF 6
ENDMDL
MODEL 4
REMARK VINA RESULT:    -7.517     29.203     32.285
REMARK INTER + INTRA:         -11.669
REMARK INTER:                 -10.782
REMARK INTRA:                  -0.888
REMARK UNBOUND:                -1.736
REMARK  6 active torsions:
REMARK  status: ('A' for Active; 'I' for Inactive)
REMARK    1  A    between atoms: O_1  and  C_22 
REMARK    2  A    between atoms: C_6  and  C_13 
REMARK    3  A    between atoms: C_13  and  C_21 
REMARK    4  A    between atoms: C_21  and  C_24 
REMARK    5  A    between atoms: C_24  and  C_25 
REMARK    6  A    between atoms: C_25  and  C_26 
ROOT
ATOM      1  C   UNL d   1     126.936 141.588 197.898  0.00  0.00     0.000 C 
ATOM      2  C   UNL d   1     125.948 140.856 196.954  0.00  0.00     0.000 C 
ATOM      3  C   UNL d   1     125.041 139.880 197.706  0.00  0.00     0.005 C 
ATOM      4  C   UNL d   1     124.201 140.651 198.764  0.00  0.00     0.004 C 
ATOM      5  C   UNL d   1     127.820 142.361 196.868  0.00  0.00     0.000 C 
ATOM      6  C   UNL d   1     126.049 142.486 198.782  0.00  0.00     0.000 C 
ATOM      7  C   UNL d   1     123.338 139.657 199.642  0.00  0.00     0.015 C 
ATOM      8  C   UNL d   1     126.838 140.303 195.856  0.00  0.00     0.000 C 
ATOM      9  C   UNL d   1     125.035 141.667 199.598  0.00  0.00     0.000 C 
ATOM     10  C   UNL d   1     127.861 141.418 195.627  0.00  0.00     0.000 C 
ATOM     11  C   UNL d   1     124.118 139.105 196.756  0.00  0.00     0.025 C 
ATOM     12  C   UNL d   1     127.775 140.601 198.748  0.00  0.00     0.000 C 
ATOM     13  C   UNL d   1     122.700 138.572 198.763  0.00  0.00    -0.047 C 
ATOM     14  C   UNL d   1     122.205 140.471 200.333  0.00  0.00     0.006 C 
ATOM     15  C   UNL d   1     123.042 138.360 197.482  0.00  0.00    -0.035 C 
ATOM     16  C   UNL d   1     124.205 138.963 200.721  0.00  0.00     0.004 C 
ATOM     17  C   UNL d   1     121.621 137.725 199.411  0.00  0.00     0.051 C 
ATOM     18  C   UNL d   1     121.145 139.608 201.021  0.00  0.00     0.030 C 
ATOM     19  C   UNL d   1     120.541 138.586 200.062  0.00  0.00     0.115 C 
ENDROOT
BRANCH   5  20
ATOM     20  C   UNL d   1     129.256 142.843 197.273  0.00  0.00     0.000 C 
ATOM     21  C   UNL d   1     130.310 141.735 197.159  0.00  0.00     0.000 C 
BRANCH  20  22
ATOM     22  C   UNL d   1     129.218 143.424 198.716  0.00  0.00     0.000 C 
BRANCH  22  23
ATOM     23  C   UNL d   1     130.267 142.922 199.720  0.00  0.00     0.000 C 
BRANCH  23  24
ATOM     24  C   UNL d   1     129.855 142.939 201.197  0.00  0.00     0.000 C 
BRANCH  24  25
ATOM     25  C   UNL d   1     128.340 143.013 201.460  0.00  0.00     0.000 C 
ATOM     26  C   UNL d   1     127.842 141.813 202.272  0.00  0.00     0.000 C 
ATOM     27  C   UNL d   1     127.997 144.312 202.193  0.00  0.00     0.000 C 
ENDBRANCH  24  25
ENDBRANCH  23  24
ENDBRANCH  22  23
ENDBRANCH  20  22
ENDBRANCH   5  20
BRANCH  19  28
ATOM     28  O   UNL d   1     119.646 137.737 200.778  0.00  0.00    -0.385 OA
ATOM     29  H   UNL d   1     120.044 137.562 201.650  0.00  0.00     0.210 HD
ENDBRANCH  19  28
TORSDOF 6
ENDMDL
MODEL 5
REMARK VINA RESULT:    -7.435      3.338      8.100
REMARK INTER + INTRA:         -11.561
REMARK INTER:                 -10.159
REMARK INTRA:                  -1.402
REMARK UNBOUND:                -1.736
REMARK  6 active torsions:
REMARK  status: ('A' for Active; 'I' for Inactive)
REMARK    1  A    between atoms: O_1  and  C_22 
REMARK    2  A    between atoms: C_6  and  C_13 
REMARK    3  A    between atoms: C_13  and  C_21 
REMARK    4  A    between atoms: C_21  and  C_24 
REMARK    5  A    between atoms: C_24  and  C_25 
REMARK    6  A    between atoms: C_25  and  C_26 
ROOT
ATOM      1  C   UNL d   1     127.719 123.174 171.588  0.00  0.00     0.000 C 
ATOM      2  C   UNL d   1     128.321 124.492 172.142  0.00  0.00     0.000 C 
ATOM      3  C   UNL d   1     127.566 125.726 171.648  0.00  0.00     0.005 C 
ATOM      4  C   UNL d   1     126.081 125.656 172.108  0.00  0.00     0.004 C 
ATOM      5  C   UNL d   1     128.761 122.128 172.101  0.00  0.00     0.000 C 
ATOM      6  C   UNL d   1     126.329 123.066 172.244  0.00  0.00     0.000 C 
ATOM      7  C   UNL d   1     125.242 126.859 171.514  0.00  0.00     0.015 C 
ATOM      8  C   UNL d   1     129.799 124.380 171.817  0.00  0.00     0.000 C 
ATOM      9  C   UNL d   1     125.429 124.261 171.882  0.00  0.00     0.000 C 
ATOM     10  C   UNL d   1     130.112 122.904 172.076  0.00  0.00     0.000 C 
ATOM     11  C   UNL d   1     128.212 127.029 172.139  0.00  0.00     0.025 C 
ATOM     12  C   UNL d   1     127.621 123.178 170.042  0.00  0.00     0.000 C 
ATOM     13  C   UNL d   1     126.036 128.170 171.604  0.00  0.00    -0.047 C 
ATOM     14  C   UNL d   1     123.938 127.006 172.351  0.00  0.00     0.006 C 
ATOM     15  C   UNL d   1     127.344 128.225 171.905  0.00  0.00    -0.035 C 
ATOM     16  C   UNL d   1     124.877 126.611 170.030  0.00  0.00     0.004 C 
ATOM     17  C   UNL d   1     125.262 129.448 171.345  0.00  0.00     0.051 C 
ATOM     18  C   UNL d   1     123.141 128.277 172.050  0.00  0.00     0.030 C 
ATOM     19  C   UNL d   1     124.001 129.529 172.202  0.00  0.00     0.115 C 
ENDROOT
BRANCH   5  20
ATOM     20  C   UNL d   1     128.883 120.734 171.395  0.00  0.00     0.000 C 
ATOM     21  C   UNL d   1     128.225 119.602 172.195  0.00  0.00     0.000 C 
BRANCH  20  22
ATOM     22  C   UNL d   1     130.384 120.421 171.127  0.00  0.00     0.000 C 
BRANCH  22  23
ATOM     23  C   UNL d   1     130.833 120.255 169.668  0.00  0.00     0.000 C 
BRANCH  23  24
ATOM     24  C   UNL d   1     132.310 120.546 169.374  0.00  0.00     0.000 C 
BRANCH  24  25
ATOM     25  C   UNL d   1     132.612 121.961 168.850  0.00  0.00     0.000 C 
ATOM     26  C   UNL d   1     131.333 122.727 168.503  0.00  0.00     0.000 C 
ATOM     27  C   UNL d   1     133.420 122.745 169.887  0.00  0.00     0.000 C 
ENDBRANCH  24  25
ENDBRANCH  23  24
ENDBRANCH  22  23
ENDBRANCH  20  22
ENDBRANCH   5  20
BRANCH  19  28
ATOM     28  O   UNL d   1     123.246 130.671 171.802  0.00  0.00    -0.385 OA
ATOM     29  H   UNL d   1     123.785 131.460 171.996  0.00  0.00     0.210 HD
ENDBRANCH  19  28
TORSDOF 6
ENDMDL
MODEL 6
REMARK VINA RESULT:    -7.324     28.108     31.165
REMARK INTER + INTRA:         -11.415
REMARK INTER:                 -10.096
REMARK INTRA:                  -1.319
REMARK UNBOUND:                -1.736
REMARK  6 active torsions:
REMARK  status: ('A' for Active; 'I' for Inactive)
REMARK    1  A    between atoms: O_1  and  C_22 
REMARK    2  A    between atoms: C_6  and  C_13 
REMARK    3  A    between atoms: C_13  and  C_21 
REMARK    4  A    between atoms: C_21  and  C_24 
REMARK    5  A    between atoms: C_24  and  C_25 
REMARK    6  A    between atoms: C_25  and  C_26 
ROOT
ATOM      1  C   UNL d   1     125.800 141.149 198.457  0.00  0.00     0.000 C 
ATOM      2  C   UNL d   1     124.989 140.956 197.150  0.00  0.00     0.000 C 
ATOM      3  C   UNL d   1     124.470 139.525 196.996  0.00  0.00     0.005 C 
ATOM      4  C   UNL d   1     123.534 139.173 198.188  0.00  0.00     0.004 C 
ATOM      5  C   UNL d   1     126.333 142.605 198.269  0.00  0.00     0.000 C 
ATOM      6  C   UNL d   1     124.769 140.987 199.591  0.00  0.00     0.000 C 
ATOM      7  C   UNL d   1     123.072 137.661 198.122  0.00  0.00     0.015 C 
ATOM      8  C   UNL d   1     125.905 141.504 196.071  0.00  0.00     0.000 C 
ATOM      9  C   UNL d   1     124.107 139.598 199.571  0.00  0.00     0.000 C 
ATOM     10  C   UNL d   1     126.539 142.732 196.729  0.00  0.00     0.000 C 
ATOM     11  C   UNL d   1     123.733 139.323 195.664  0.00  0.00     0.025 C 
ATOM     12  C   UNL d   1     126.956 140.126 198.587  0.00  0.00     0.000 C 
ATOM     13  C   UNL d   1     122.703 137.268 196.685  0.00  0.00    -0.047 C 
ATOM     14  C   UNL d   1     121.815 137.493 199.025  0.00  0.00     0.006 C 
ATOM     15  C   UNL d   1     122.984 138.028 195.614  0.00  0.00    -0.035 C 
ATOM     16  C   UNL d   1     124.190 136.710 198.616  0.00  0.00     0.004 C 
ATOM     17  C   UNL d   1     121.973 135.950 196.510  0.00  0.00     0.051 C 
ATOM     18  C   UNL d   1     121.111 136.143 198.874  0.00  0.00     0.030 C 
ATOM     19  C   UNL d   1     120.750 135.857 197.419  0.00  0.00     0.115 C 
ENDROOT
BRANCH   5  20
ATOM     20  C   UNL d   1     127.597 143.086 199.062  0.00  0.00     0.000 C 
ATOM     21  C   UNL d   1     127.246 143.979 200.258  0.00  0.00     0.000 C 
BRANCH  20  22
ATOM     22  C   UNL d   1     128.568 143.819 198.091  0.00  0.00     0.000 C 
BRANCH  22  23
ATOM     23  C   UNL d   1     130.026 143.340 198.038  0.00  0.00     0.000 C 
BRANCH  23  24
ATOM     24  C   UNL d   1     130.356 142.075 198.839  0.00  0.00     0.000 C 
BRANCH  24  25
ATOM     25  C   UNL d   1     131.380 142.259 199.973  0.00  0.00     0.000 C 
ATOM     26  C   UNL d   1     132.402 143.352 199.648  0.00  0.00     0.000 C 
ATOM     27  C   UNL d   1     130.661 142.595 201.282  0.00  0.00     0.000 C 
ENDBRANCH  24  25
ENDBRANCH  23  24
ENDBRANCH  22  23
ENDBRANCH  20  22
ENDBRANCH   5  20
BRANCH  19  28
ATOM     28  O   UNL d   1     120.201 134.544 197.318  0.00  0.00    -0.385 OA
ATOM     29  H   UNL d   1     119.240 134.617 197.464  0.00  0.00     0.210 HD
ENDBRANCH  19  28
TORSDOF 6
ENDMDL
MODEL 7
REMARK VINA RESULT:    -7.159      3.382      8.375
REMARK INTER + INTRA:         -11.197
REMARK INTER:                  -9.984
REMARK INTRA:                  -1.214
REMARK UNBOUND:                -1.736
REMARK  6 active torsions:
REMARK  status: ('A' for Active; 'I' for Inactive)
REMARK    1  A    between atoms: O_1  and  C_22 
REMARK    2  A    between atoms: C_6  and  C_13 
REMARK    3  A    between atoms: C_13  and  C_21 
REMARK    4  A    between atoms: C_21  and  C_24 
REMARK    5  A    between atoms: C_24  and  C_25 
REMARK    6  A    between atoms: C_25  and  C_26 
ROOT
ATOM      1  C   UNL d   1     127.582 123.412 171.872  0.00  0.00     0.000 C 
ATOM      2  C   UNL d   1     128.103 124.743 172.473  0.00  0.00     0.000 C 
ATOM      3  C   UNL d   1     127.369 125.961 171.909  0.00  0.00     0.005 C 
ATOM      4  C   UNL d   1     125.851 125.859 172.233  0.00  0.00     0.004 C 
ATOM      5  C   UNL d   1     128.595 122.390 172.479  0.00  0.00     0.000 C 
ATOM      6  C   UNL d   1     126.141 123.276 172.400  0.00  0.00     0.000 C 
ATOM      7  C   UNL d   1     125.044 127.043 171.563  0.00  0.00     0.015 C 
ATOM      8  C   UNL d   1     129.606 124.663 172.282  0.00  0.00     0.000 C 
ATOM      9  C   UNL d   1     125.252 124.450 171.955  0.00  0.00     0.000 C 
ATOM     10  C   UNL d   1     129.927 123.194 172.573  0.00  0.00     0.000 C 
ATOM     11  C   UNL d   1     127.941 127.278 172.452  0.00  0.00     0.025 C 
ATOM     12  C   UNL d   1     127.623 123.412 170.323  0.00  0.00     0.000 C 
ATOM     13  C   UNL d   1     125.798 128.371 171.719  0.00  0.00    -0.047 C 
ATOM     14  C   UNL d   1     123.666 127.163 172.278  0.00  0.00     0.006 C 
ATOM     15  C   UNL d   1     127.072 128.455 172.137  0.00  0.00    -0.035 C 
ATOM     16  C   UNL d   1     124.819 126.785 170.053  0.00  0.00     0.004 C 
ATOM     17  C   UNL d   1     125.024 129.632 171.387  0.00  0.00     0.051 C 
ATOM     18  C   UNL d   1     122.873 128.416 171.903  0.00  0.00     0.030 C 
ATOM     19  C   UNL d   1     123.689 129.687 172.127  0.00  0.00     0.115 C 
ENDROOT
BRANCH   5  20
ATOM     20  C   UNL d   1     128.810 120.997 171.793  0.00  0.00     0.000 C 
ATOM     21  C   UNL d   1     128.678 119.824 172.771  0.00  0.00     0.000 C 
BRANCH  20  22
ATOM     22  C   UNL d   1     130.198 120.977 171.089  0.00  0.00     0.000 C 
BRANCH  22  23
ATOM     23  C   UNL d   1     130.225 120.997 169.553  0.00  0.00     0.000 C 
BRANCH  23  24
ATOM     24  C   UNL d   1     129.159 120.152 168.845  0.00  0.00     0.000 C 
BRANCH  24  25
ATOM     25  C   UNL d   1     129.538 118.680 168.600  0.00  0.00     0.000 C 
ATOM     26  C   UNL d   1     129.021 117.765 169.714  0.00  0.00     0.000 C 
ATOM     27  C   UNL d   1     128.988 118.213 167.250  0.00  0.00     0.000 C 
ENDBRANCH  24  25
ENDBRANCH  23  24
ENDBRANCH  22  23
ENDBRANCH  20  22
ENDBRANCH   5  20
BRANCH  19  28
ATOM     28  O   UNL d   1     122.950 130.812 171.658  0.00  0.00    -0.385 OA
ATOM     29  H   UNL d   1     123.227 131.584 172.184  0.00  0.00     0.210 HD
ENDBRANCH  19  28
TORSDOF 6
ENDMDL
MODEL 8
REMARK VINA RESULT:    -7.145      1.802      3.867
REMARK INTER + INTRA:         -11.178
REMARK INTER:                  -9.669
REMARK INTRA:                  -1.509
REMARK UNBOUND:                -1.736
REMARK  6 active torsions:
REMARK  status: ('A' for Active; 'I' for Inactive)
REMARK    1  A    between atoms: O_1  and  C_22 
REMARK    2  A    between atoms: C_6  and  C_13 
REMARK    3  A    between atoms: C_13  and  C_21 
REMARK    4  A    between atoms: C_21  and  C_24 
REMARK    5  A    between atoms: C_24  and  C_25 
REMARK    6  A    between atoms: C_25  and  C_26 
ROOT
ATOM      1  C   UNL d   1     128.145 124.163 172.047  0.00  0.00     0.000 C 
ATOM      2  C   UNL d   1     127.942 122.883 172.897  0.00  0.00     0.000 C 
ATOM      3  C   UNL d   1     128.069 121.607 172.064  0.00  0.00     0.005 C 
ATOM      4  C   UNL d   1     129.486 121.531 171.427  0.00  0.00     0.004 C 
ATOM      5  C   UNL d   1     127.801 125.275 173.088  0.00  0.00     0.000 C 
ATOM      6  C   UNL d   1     129.625 124.125 171.618  0.00  0.00     0.000 C 
ATOM      7  C   UNL d   1     129.612 120.283 170.463  0.00  0.00     0.015 C 
ATOM      8  C   UNL d   1     126.635 123.135 173.625  0.00  0.00     0.000 C 
ATOM      9  C   UNL d   1     129.950 122.872 170.787  0.00  0.00     0.000 C 
ATOM     10  C   UNL d   1     126.705 124.622 173.984  0.00  0.00     0.000 C 
ATOM     11  C   UNL d   1     127.793 120.348 172.897  0.00  0.00     0.025 C 
ATOM     12  C   UNL d   1     127.199 124.210 170.821  0.00  0.00     0.000 C 
ATOM     13  C   UNL d   1     128.961 119.043 171.092  0.00  0.00    -0.047 C 
ATOM     14  C   UNL d   1     131.124 119.991 170.234  0.00  0.00     0.006 C 
ATOM     15  C   UNL d   1     128.178 119.090 172.183  0.00  0.00    -0.035 C 
ATOM     16  C   UNL d   1     128.929 120.554 169.100  0.00  0.00     0.004 C 
ATOM     17  C   UNL d   1     129.252 117.714 170.424  0.00  0.00     0.051 C 
ATOM     18  C   UNL d   1     131.406 118.669 169.519  0.00  0.00     0.030 C 
ATOM     19  C   UNL d   1     130.751 117.491 170.237  0.00  0.00     0.115 C 
ENDROOT
BRANCH   5  20
ATOM     20  C   UNL d   1     127.370 126.701 172.599  0.00  0.00     0.000 C 
ATOM     21  C   UNL d   1     128.537 127.696 172.562  0.00  0.00     0.000 C 
BRANCH  20  22
ATOM     22  C   UNL d   1     126.220 127.232 173.503  0.00  0.00     0.000 C 
BRANCH  22  23
ATOM     23  C   UNL d   1     125.055 127.968 172.825  0.00  0.00     0.000 C 
BRANCH  23  24
ATOM     24  C   UNL d   1     123.659 127.368 173.033  0.00  0.00     0.000 C 
BRANCH  24  25
ATOM     25  C   UNL d   1     123.224 126.328 171.985  0.00  0.00     0.000 C 
ATOM     26  C   UNL d   1     124.012 126.469 170.679  0.00  0.00     0.000 C 
ATOM     27  C   UNL d   1     123.398 124.913 172.544  0.00  0.00     0.000 C 
ENDBRANCH  24  25
ENDBRANCH  23  24
ENDBRANCH  22  23
ENDBRANCH  20  22
ENDBRANCH   5  20
BRANCH  19  28
ATOM     28  O   UNL d   1     130.948 116.303 169.472  0.00  0.00    -0.385 OA
ATOM     29  H   UNL d   1     131.303 115.623 170.074  0.00  0.00     0.210 HD
ENDBRANCH  19  28
TORSDOF 6
ENDMDL
MODEL 9
REMARK VINA RESULT:    -7.085     29.880     33.406
REMARK INTER + INTRA:         -11.100
REMARK INTER:                  -9.742
REMARK INTRA:                  -1.358
REMARK UNBOUND:                -1.736
REMARK  6 active torsions:
REMARK  status: ('A' for Active; 'I' for Inactive)
REMARK    1  A    between atoms: O_1  and  C_22 
REMARK    2  A    between atoms: C_6  and  C_13 
REMARK    3  A    between atoms: C_13  and  C_21 
REMARK    4  A    between atoms: C_21  and  C_24 
REMARK    5  A    between atoms: C_24  and  C_25 
REMARK    6  A    between atoms: C_25  and  C_26 
ROOT
ATOM      1  C   UNL d   1     127.892 142.116 198.291  0.00  0.00     0.000 C 
ATOM      2  C   UNL d   1     127.782 142.858 199.647  0.00  0.00     0.000 C 
ATOM      3  C   UNL d   1     128.997 142.613 200.543  0.00  0.00     0.005 C 
ATOM      4  C   UNL d   1     130.286 143.118 199.832  0.00  0.00     0.004 C 
ATOM      5  C   UNL d   1     126.484 142.398 197.677  0.00  0.00     0.000 C 
ATOM      6  C   UNL d   1     129.060 142.803 197.556  0.00  0.00     0.000 C 
ATOM      7  C   UNL d   1     131.577 142.773 200.680  0.00  0.00     0.015 C 
ATOM      8  C   UNL d   1     126.415 142.456 200.170  0.00  0.00     0.000 C 
ATOM      9  C   UNL d   1     130.379 142.688 198.339  0.00  0.00     0.000 C 
ATOM     10  C   UNL d   1     125.539 142.447 198.915  0.00  0.00     0.000 C 
ATOM     11  C   UNL d   1     128.846 143.290 201.913  0.00  0.00     0.025 C 
ATOM     12  C   UNL d   1     128.147 140.598 198.471  0.00  0.00     0.000 C 
ATOM     13  C   UNL d   1     131.336 143.049 202.171  0.00  0.00    -0.047 C 
ATOM     14  C   UNL d   1     132.743 143.677 200.186  0.00  0.00     0.006 C 
ATOM     15  C   UNL d   1     130.124 143.299 202.692  0.00  0.00    -0.035 C 
ATOM     16  C   UNL d   1     131.974 141.285 200.518  0.00  0.00     0.004 C 
ATOM     17  C   UNL d   1     132.561 143.044 203.066  0.00  0.00     0.051 C 
ATOM     18  C   UNL d   1     133.990 143.631 201.071  0.00  0.00     0.030 C 
ATOM     19  C   UNL d   1     133.660 143.956 202.525  0.00  0.00     0.115 C 
ENDROOT
BRANCH   5  20
ATOM     20  C   UNL d   1     125.915 141.463 196.555  0.00  0.00     0.000 C 
ATOM     21  C   UNL d   1     125.809 142.161 195.194  0.00  0.00     0.000 C 
BRANCH  20  22
ATOM     22  C   UNL d   1     124.532 140.904 197.000  0.00  0.00     0.000 C 
BRANCH  22  23
ATOM     23  C   UNL d   1     124.501 139.536 197.696  0.00  0.00     0.000 C 
BRANCH  23  24
ATOM     24  C   UNL d   1     123.544 139.402 198.888  0.00  0.00     0.000 C 
BRANCH  24  25
ATOM     25  C   UNL d   1     124.218 139.297 200.268  0.00  0.00     0.000 C 
ATOM     26  C   UNL d   1     123.362 138.507 201.262  0.00  0.00     0.000 C 
ATOM     27  C   UNL d   1     125.594 138.640 200.133  0.00  0.00     0.000 C 
ENDBRANCH  24  25
ENDBRANCH  23  24
ENDBRANCH  22  23
ENDBRANCH  20  22
ENDBRANCH   5  20
BRANCH  19  28
ATOM     28  O   UNL d   1     134.830 143.788 203.324  0.00  0.00    -0.385 OA
ATOM     29  H   UNL d   1     134.564 143.890 204.256  0.00  0.00     0.210 HD
ENDBRANCH  19  28
TORSDOF 6
ENDMDL
MODEL 10
REMARK VINA RESULT:    -7.054      3.192      8.545
REMARK INTER + INTRA:         -11.059
REMARK INTER:                 -10.081
REMARK INTRA:                  -0.977
REMARK UNBOUND:                -1.736
REMARK  6 active torsions:
REMARK  status: ('A' for Active; 'I' for Inactive)
REMARK    1  A    between atoms: O_1  and  C_22 
REMARK    2  A    between atoms: C_6  and  C_13 
REMARK    3  A    between atoms: C_13  and  C_21 
REMARK    4  A    between atoms: C_21  and  C_24 
REMARK    5  A    between atoms: C_24  and  C_25 
REMARK    6  A    between atoms: C_25  and  C_26 
ROOT
ATOM      1  C   UNL d   1     128.936 123.985 171.203  0.00  0.00     0.000 C 
ATOM      2  C   UNL d   1     127.437 123.637 171.389  0.00  0.00     0.000 C 
ATOM      3  C   UNL d   1     126.635 124.810 171.954  0.00  0.00     0.005 C 
ATOM      4  C   UNL d   1     126.721 126.024 170.984  0.00  0.00     0.004 C 
ATOM      5  C   UNL d   1     129.520 122.596 170.791  0.00  0.00     0.000 C 
ATOM      6  C   UNL d   1     128.961 125.046 170.085  0.00  0.00     0.000 C 
ATOM      7  C   UNL d   1     126.000 127.293 171.594  0.00  0.00     0.015 C 
ATOM      8  C   UNL d   1     127.461 122.341 172.178  0.00  0.00     0.000 C 
ATOM      9  C   UNL d   1     128.162 126.303 170.469  0.00  0.00     0.000 C 
ATOM     10  C   UNL d   1     128.639 121.574 171.572  0.00  0.00     0.000 C 
ATOM     11  C   UNL d   1     125.168 124.434 172.206  0.00  0.00     0.025 C 
ATOM     12  C   UNL d   1     129.581 124.516 172.507  0.00  0.00     0.000 C 
ATOM     13  C   UNL d   1     124.669 126.898 172.251  0.00  0.00    -0.047 C 
ATOM     14  C   UNL d   1     125.709 128.294 170.438  0.00  0.00     0.006 C 
ATOM     15  C   UNL d   1     124.310 125.627 172.491  0.00  0.00    -0.035 C 
ATOM     16  C   UNL d   1     126.884 127.982 172.662  0.00  0.00     0.004 C 
ATOM     17  C   UNL d   1     123.735 128.034 172.620  0.00  0.00     0.051 C 
ATOM     18  C   UNL d   1     124.801 129.460 170.833  0.00  0.00     0.030 C 
ATOM     19  C   UNL d   1     123.489 128.971 171.440  0.00  0.00     0.115 C 
ENDROOT
BRANCH   5  20
ATOM     20  C   UNL d   1     131.048 122.301 170.977  0.00  0.00     0.000 C 
ATOM     21  C   UNL d   1     131.931 123.097 170.009  0.00  0.00     0.000 C 
BRANCH  20  22
ATOM     22  C   UNL d   1     131.301 120.773 170.827  0.00  0.00     0.000 C 
BRANCH  22  23
ATOM     23  C   UNL d   1     131.468 120.209 169.407  0.00  0.00     0.000 C 
BRANCH  23  24
ATOM     24  C   UNL d   1     130.176 119.950 168.623  0.00  0.00     0.000 C 
BRANCH  24  25
ATOM     25  C   UNL d   1     129.666 118.497 168.653  0.00  0.00     0.000 C 
ATOM     26  C   UNL d   1     128.727 118.245 169.836  0.00  0.00     0.000 C 
ATOM     27  C   UNL d   1     128.947 118.165 167.342  0.00  0.00     0.000 C 
ENDBRANCH  24  25
ENDBRANCH  23  24
ENDBRANCH  22  23
ENDBRANCH  20  22
ENDBRANCH   5  20
BRANCH  19  28
ATOM     28  O   UNL d   1     122.731 130.091 171.892  0.00  0.00    -0.385 OA
ATOM     29  H   UNL d   1     122.949 130.845 171.314  0.00  0.00     0.210 HD
ENDBRANCH  19  28
TORSDOF 6
ENDMDL
MODEL 11
REMARK VINA RESULT:    -7.037      2.411      5.246
REMARK INTER + INTRA:         -11.035
REMARK INTER:                  -9.722
REMARK INTRA:                  -1.314
REMARK UNBOUND:                -1.736
REMARK  6 active torsions:
REMARK  status: ('A' for Active; 'I' for Inactive)
REMARK    1  A    between atoms: O_1  and  C_22 
REMARK    2  A    between atoms: C_6  and  C_13 
REMARK    3  A    between atoms: C_13  and  C_21 
REMARK    4  A    between atoms: C_21  and  C_24 
REMARK    5  A    between atoms: C_24  and  C_25 
REMARK    6  A    between atoms: C_25  and  C_26 
ROOT
ATOM      1  C   UNL d   1     129.283 122.625 171.580  0.00  0.00     0.000 C 
ATOM      2  C   UNL d   1     128.757 121.348 172.284  0.00  0.00     0.000 C 
ATOM      3  C   UNL d   1     128.660 120.157 171.329  0.00  0.00     0.005 C 
ATOM      4  C   UNL d   1     130.066 119.831 170.749  0.00  0.00     0.004 C 
ATOM      5  C   UNL d   1     129.118 123.685 172.715  0.00  0.00     0.000 C 
ATOM      6  C   UNL d   1     130.744 122.302 171.213  0.00  0.00     0.000 C 
ATOM      7  C   UNL d   1     129.983 118.679 169.667  0.00  0.00     0.015 C 
ATOM      8  C   UNL d   1     127.490 121.813 172.978  0.00  0.00     0.000 C 
ATOM      9  C   UNL d   1     130.846 121.090 170.271  0.00  0.00     0.000 C 
ATOM     10  C   UNL d   1     127.853 123.208 173.491  0.00  0.00     0.000 C 
ATOM     11  C   UNL d   1     128.068 118.918 172.016  0.00  0.00     0.025 C 
ATOM     12  C   UNL d   1     128.448 122.990 170.326  0.00  0.00     0.000 C 
ATOM     13  C   UNL d   1     129.042 117.560 170.137  0.00  0.00    -0.047 C 
ATOM     14  C   UNL d   1     131.409 118.085 169.474  0.00  0.00     0.006 C 
ATOM     15  C   UNL d   1     128.220 117.678 171.192  0.00  0.00    -0.035 C 
ATOM     16  C   UNL d   1     129.462 119.218 168.312  0.00  0.00     0.004 C 
ATOM     17  C   UNL d   1     129.084 116.266 169.347  0.00  0.00     0.051 C 
ATOM     18  C   UNL d   1     131.446 116.804 168.639  0.00  0.00     0.030 C 
ATOM     19  C   UNL d   1     130.510 115.738 169.203  0.00  0.00     0.115 C 
ENDROOT
BRANCH   5  20
ATOM     20  C   UNL d   1     129.035 125.209 172.358  0.00  0.00     0.000 C 
ATOM     21  C   UNL d   1     130.246 126.006 172.860  0.00  0.00     0.000 C 
BRANCH  20  22
ATOM     22  C   UNL d   1     127.711 125.801 172.924  0.00  0.00     0.000 C 
BRANCH  22  23
ATOM     23  C   UNL d   1     126.690 126.362 171.923  0.00  0.00     0.000 C 
BRANCH  23  24
ATOM     24  C   UNL d   1     125.702 125.353 171.324  0.00  0.00     0.000 C 
BRANCH  24  25
ATOM     25  C   UNL d   1     125.430 125.511 169.816  0.00  0.00     0.000 C 
ATOM     26  C   UNL d   1     125.119 124.168 169.149  0.00  0.00     0.000 C 
ATOM     27  C   UNL d   1     124.270 126.483 169.589  0.00  0.00     0.000 C 
ENDBRANCH  24  25
ENDBRANCH  23  24
ENDBRANCH  22  23
ENDBRANCH  20  22
ENDBRANCH   5  20
BRANCH  19  28
ATOM     28  O   UNL d   1     130.496 114.611 168.328  0.00  0.00    -0.385 OA
ATOM     29  H   UNL d   1     130.985 113.893 168.769  0.00  0.00     0.210 HD
ENDBRANCH  19  28
TORSDOF 6
ENDMDL
MODEL 12
REMARK VINA RESULT:    -6.961      3.342      6.615
REMARK INTER + INTRA:         -10.935
REMARK INTER:                  -9.893
REMARK INTRA:                  -1.042
REMARK UNBOUND:                -1.736
REMARK  6 active torsions:
REMARK  status: ('A' for Active; 'I' for Inactive)
REMARK    1  A    between atoms: O_1  and  C_22 
REMARK    2  A    between atoms: C_6  and  C_13 
REMARK    3  A    between atoms: C_13  and  C_21 
REMARK    4  A    between atoms: C_21  and  C_24 
REMARK    5  A    between atoms: C_24  and  C_25 
REMARK    6  A    between atoms: C_25  and  C_26 
ROOT
ATOM      1  C   UNL d   1     129.692 120.974 170.513  0.00  0.00     0.000 C 
ATOM      2  C   UNL d   1     129.212 119.878 171.498  0.00  0.00     0.000 C 
ATOM      3  C   UNL d   1     129.034 118.521 170.814  0.00  0.00     0.005 C 
ATOM      4  C   UNL d   1     130.390 118.053 170.210  0.00  0.00     0.004 C 
ATOM      5  C   UNL d   1     129.622 122.245 171.419  0.00  0.00     0.000 C 
ATOM      6  C   UNL d   1     131.119 120.552 170.113  0.00  0.00     0.000 C 
ATOM      7  C   UNL d   1     130.216 116.709 169.394  0.00  0.00     0.015 C 
ATOM      8  C   UNL d   1     128.005 120.501 172.175  0.00  0.00     0.000 C 
ATOM      9  C   UNL d   1     131.140 119.173 169.432  0.00  0.00     0.000 C 
ATOM     10  C   UNL d   1     128.417 121.963 172.366  0.00  0.00     0.000 C 
ATOM     11  C   UNL d   1     128.488 117.459 171.779  0.00  0.00     0.025 C 
ATOM     12  C   UNL d   1     128.766 121.098 169.277  0.00  0.00     0.000 C 
ATOM     13  C   UNL d   1     129.306 115.729 170.148  0.00  0.00    -0.047 C 
ATOM     14  C   UNL d   1     131.619 116.057 169.220  0.00  0.00     0.006 C 
ATOM     15  C   UNL d   1     128.568 116.075 171.215  0.00  0.00    -0.035 C 
ATOM     16  C   UNL d   1     129.597 116.975 168.000  0.00  0.00     0.004 C 
ATOM     17  C   UNL d   1     129.279 114.302 169.636  0.00  0.00     0.051 C 
ATOM     18  C   UNL d   1     131.583 114.634 168.662  0.00  0.00     0.030 C 
ATOM     19  C   UNL d   1     130.686 113.724 169.497  0.00  0.00     0.115 C 
ENDROOT
BRANCH   5  20
ATOM     20  C   UNL d   1     129.522 123.668 170.768  0.00  0.00     0.000 C 
ATOM     21  C   UNL d   1     130.663 124.599 171.195  0.00  0.00     0.000 C 
BRANCH  20  22
ATOM     22  C   UNL d   1     128.139 124.295 171.107  0.00  0.00     0.000 C 
BRANCH  22  23
ATOM     23  C   UNL d   1     127.289 124.831 169.944  0.00  0.00     0.000 C 
BRANCH  23  24
ATOM     24  C   UNL d   1     126.132 123.937 169.481  0.00  0.00     0.000 C 
BRANCH  24  25
ATOM     25  C   UNL d   1     124.737 124.587 169.524  0.00  0.00     0.000 C 
ATOM     26  C   UNL d   1     124.330 124.970 170.950  0.00  0.00     0.000 C 
ATOM     27  C   UNL d   1     124.707 125.826 168.626  0.00  0.00     0.000 C 
ENDBRANCH  24  25
ENDBRANCH  23  24
ENDBRANCH  22  23
ENDBRANCH  20  22
ENDBRANCH   5  20
BRANCH  19  28
ATOM     28  O   UNL d   1     130.597 112.445 168.872  0.00  0.00    -0.385 OA
ATOM     29  H   UNL d   1     131.502 112.170 168.639  0.00  0.00     0.210 HD
ENDBRANCH  19  28
TORSDOF 6
ENDMDL
MODEL 13
REMARK VINA RESULT:    -6.926     30.457     33.053
REMARK INTER + INTRA:         -10.888
REMARK INTER:                  -9.317
REMARK INTRA:                  -1.571
REMARK UNBOUND:                -1.736
REMARK  6 active torsions:
REMARK  status: ('A' for Active; 'I' for Inactive)
REMARK    1  A    between atoms: O_1  and  C_22 
REMARK    2  A    between atoms: C_6  and  C_13 
REMARK    3  A    between atoms: C_13  and  C_21 
REMARK    4  A    between atoms: C_21  and  C_24 
REMARK    5  A    between atoms: C_24  and  C_25 
REMARK    6  A    between atoms: C_25  and  C_26 
ROOT
ATOM      1  C   UNL d   1     106.001 146.542 185.081  0.00  0.00     0.000 C 
ATOM      2  C   UNL d   1     106.757 147.876 184.850  0.00  0.00     0.000 C 
ATOM      3  C   UNL d   1     107.712 147.804 183.657  0.00  0.00     0.005 C 
ATOM      4  C   UNL d   1     106.913 147.483 182.361  0.00  0.00     0.004 C 
ATOM      5  C   UNL d   1     105.255 146.845 186.419  0.00  0.00     0.000 C 
ATOM      6  C   UNL d   1     105.079 146.391 183.855  0.00  0.00     0.000 C 
ATOM      7  C   UNL d   1     107.883 147.285 181.128  0.00  0.00     0.015 C 
ATOM      8  C   UNL d   1     107.338 148.203 186.213  0.00  0.00     0.000 C 
ATOM      9  C   UNL d   1     105.877 146.336 182.540  0.00  0.00     0.000 C 
ATOM     10  C   UNL d   1     106.230 147.790 187.185  0.00  0.00     0.000 C 
ATOM     11  C   UNL d   1     108.510 149.103 183.482  0.00  0.00     0.025 C 
ATOM     12  C   UNL d   1     106.966 145.338 185.220  0.00  0.00     0.000 C 
ATOM     13  C   UNL d   1     108.991 148.348 181.132  0.00  0.00    -0.047 C 
ATOM     14  C   UNL d   1     107.051 147.434 179.821  0.00  0.00     0.006 C 
ATOM     15  C   UNL d   1     109.236 149.158 182.174  0.00  0.00    -0.035 C 
ATOM     16  C   UNL d   1     108.550 145.887 181.157  0.00  0.00     0.004 C 
ATOM     17  C   UNL d   1     109.820 148.466 179.867  0.00  0.00     0.051 C 
ATOM     18  C   UNL d   1     107.895 147.507 178.547  0.00  0.00     0.030 C 
ATOM     19  C   UNL d   1     108.941 148.616 178.627  0.00  0.00     0.115 C 
ENDROOT
BRANCH   5  20
ATOM     20  C   UNL d   1     104.764 145.666 187.328  0.00  0.00     0.000 C 
ATOM     21  C   UNL d   1     103.241 145.487 187.300  0.00  0.00     0.000 C 
BRANCH  20  22
ATOM     22  C   UNL d   1     105.269 145.890 188.783  0.00  0.00     0.000 C 
BRANCH  22  23
ATOM     23  C   UNL d   1     106.229 144.850 189.378  0.00  0.00     0.000 C 
BRANCH  23  24
ATOM     24  C   UNL d   1     107.373 144.383 188.468  0.00  0.00     0.000 C 
BRANCH  24  25
ATOM     25  C   UNL d   1     108.776 144.875 188.866  0.00  0.00     0.000 C 
ATOM     26  C   UNL d   1     109.702 145.002 187.653  0.00  0.00     0.000 C 
ATOM     27  C   UNL d   1     108.677 146.224 189.584  0.00  0.00     0.000 C 
ENDBRANCH  24  25
ENDBRANCH  23  24
ENDBRANCH  22  23
ENDBRANCH  20  22
ENDBRANCH   5  20
BRANCH  19  28
ATOM     28  O   UNL d   1     109.770 148.568 177.468  0.00  0.00    -0.385 OA
ATOM     29  H   UNL d   1     109.391 147.904 176.864  0.00  0.00     0.210 HD
ENDBRANCH  19  28
TORSDOF 6
ENDMDL
MODEL 14
REMARK VINA RESULT:    -6.871     34.713     38.843
REMARK INTER + INTRA:         -10.817
REMARK INTER:                  -9.143
REMARK INTRA:                  -1.674
REMARK UNBOUND:                -1.736
REMARK  6 active torsions:
REMARK  status: ('A' for Active; 'I' for Inactive)
REMARK    1  A    between atoms: O_1  and  C_22 
REMARK    2  A    between atoms: C_6  and  C_13 
REMARK    3  A    between atoms: C_13  and  C_21 
REMARK    4  A    between atoms: C_21  and  C_24 
REMARK    5  A    between atoms: C_24  and  C_25 
REMARK    6  A    between atoms: C_25  and  C_26 
ROOT
ATOM      1  C   UNL d   1     108.940 149.327 194.409  0.00  0.00     0.000 C 
ATOM      2  C   UNL d   1     108.597 148.502 195.676  0.00  0.00     0.000 C 
ATOM      3  C   UNL d   1     109.794 148.362 196.618  0.00  0.00     0.005 C 
ATOM      4  C   UNL d   1     110.266 149.769 197.084  0.00  0.00     0.004 C 
ATOM      5  C   UNL d   1     107.627 149.164 193.579  0.00  0.00     0.000 C 
ATOM      6  C   UNL d   1     109.198 150.757 194.924  0.00  0.00     0.000 C 
ATOM      7  C   UNL d   1     111.576 149.668 197.966  0.00  0.00     0.015 C 
ATOM      8  C   UNL d   1     107.969 147.236 195.125  0.00  0.00     0.000 C 
ATOM      9  C   UNL d   1     110.363 150.805 195.926  0.00  0.00     0.000 C 
ATOM     10  C   UNL d   1     107.124 147.736 193.950  0.00  0.00     0.000 C 
ATOM     11  C   UNL d   1     109.468 147.481 197.833  0.00  0.00     0.025 C 
ATOM     12  C   UNL d   1     110.170 148.762 193.656  0.00  0.00     0.000 C 
ATOM     13  C   UNL d   1     111.474 148.500 198.957  0.00  0.00    -0.047 C 
ATOM     14  C   UNL d   1     111.729 150.993 198.769  0.00  0.00     0.006 C 
ATOM     15  C   UNL d   1     110.520 147.556 198.895  0.00  0.00    -0.035 C 
ATOM     16  C   UNL d   1     112.831 149.452 197.085  0.00  0.00     0.004 C 
ATOM     17  C   UNL d   1     112.518 148.453 200.057  0.00  0.00     0.051 C 
ATOM     18  C   UNL d   1     112.815 150.950 199.846  0.00  0.00     0.030 C 
ATOM     19  C   UNL d   1     112.609 149.781 200.805  0.00  0.00     0.115 C 
ENDROOT
BRANCH   5  20
ATOM     20  C   UNL d   1     107.648 149.382 192.026  0.00  0.00     0.000 C 
ATOM     21  C   UNL d   1     107.255 150.807 191.619  0.00  0.00     0.000 C 
BRANCH  20  22
ATOM     22  C   UNL d   1     106.718 148.336 191.345  0.00  0.00     0.000 C 
BRANCH  22  23
ATOM     23  C   UNL d   1     107.363 147.307 190.405  0.00  0.00     0.000 C 
BRANCH  23  24
ATOM     24  C   UNL d   1     108.754 146.799 190.805  0.00  0.00     0.000 C 
BRANCH  24  25
ATOM     25  C   UNL d   1     108.832 145.304 191.164  0.00  0.00     0.000 C 
ATOM     26  C   UNL d   1     109.480 145.080 192.534  0.00  0.00     0.000 C 
ATOM     27  C   UNL d   1     107.433 144.684 191.146  0.00  0.00     0.000 C 
ENDBRANCH  24  25
ENDBRANCH  23  24
ENDBRANCH  22  23
ENDBRANCH  20  22
ENDBRANCH   5  20
BRANCH  19  28
ATOM     28  O   UNL d   1     113.705 149.719 201.717  0.00  0.00    -0.385 OA
ATOM     29  H   UNL d   1     113.996 148.790 201.762  0.00  0.00     0.210 HD
ENDBRANCH  19  28
TORSDOF 6
ENDMDL
MODEL 15
REMARK VINA RESULT:    -6.815      2.840      4.276
REMARK INTER + INTRA:         -10.742
REMARK INTER:                  -9.207
REMARK INTRA:                  -1.535
REMARK UNBOUND:                -1.736
REMARK  6 active torsions:
REMARK  status: ('A' for Active; 'I' for Inactive)
REMARK    1  A    between atoms: O_1  and  C_22 
REMARK    2  A    between atoms: C_6  and  C_13 
REMARK    3  A    between atoms: C_13  and  C_21 
REMARK    4  A    between atoms: C_21  and  C_24 
REMARK    5  A    between atoms: C_24  and  C_25 
REMARK    6  A    between atoms: C_25  and  C_26 
ROOT
ATOM      1  C   UNL d   1     127.502 124.369 172.282  0.00  0.00     0.000 C 
ATOM      2  C   UNL d   1     128.130 124.003 173.652  0.00  0.00     0.000 C 
ATOM      3  C   UNL d   1     127.846 122.555 174.052  0.00  0.00     0.005 C 
ATOM      4  C   UNL d   1     128.437 121.587 172.988  0.00  0.00     0.004 C 
ATOM      5  C   UNL d   1     127.797 125.901 172.214  0.00  0.00     0.000 C 
ATOM      6  C   UNL d   1     128.274 123.522 171.252  0.00  0.00     0.000 C 
ATOM      7  C   UNL d   1     128.059 120.085 173.310  0.00  0.00     0.015 C 
ATOM      8  C   UNL d   1     127.654 125.108 174.576  0.00  0.00     0.000 C 
ATOM      9  C   UNL d   1     128.130 122.015 171.523  0.00  0.00     0.000 C 
ATOM     10  C   UNL d   1     127.724 126.363 173.702  0.00  0.00     0.000 C 
ATOM     11  C   UNL d   1     128.407 122.223 175.442  0.00  0.00     0.025 C 
ATOM     12  C   UNL d   1     125.982 124.074 172.238  0.00  0.00     0.000 C 
ATOM     13  C   UNL d   1     128.209 119.797 174.810  0.00  0.00    -0.047 C 
ATOM     14  C   UNL d   1     129.028 119.156 172.523  0.00  0.00     0.006 C 
ATOM     15  C   UNL d   1     128.386 120.756 175.735  0.00  0.00    -0.035 C 
ATOM     16  C   UNL d   1     126.599 119.773 172.898  0.00  0.00     0.004 C 
ATOM     17  C   UNL d   1     128.163 118.340 175.227  0.00  0.00     0.051 C 
ATOM     18  C   UNL d   1     128.942 117.681 172.920  0.00  0.00     0.030 C 
ATOM     19  C   UNL d   1     129.142 117.490 174.421  0.00  0.00     0.115 C 
ENDROOT
BRANCH   5  20
ATOM     20  C   UNL d   1     126.940 126.825 171.281  0.00  0.00     0.000 C 
ATOM     21  C   UNL d   1     127.419 126.809 169.825  0.00  0.00     0.000 C 
BRANCH  20  22
ATOM     22  C   UNL d   1     126.940 128.274 171.848  0.00  0.00     0.000 C 
BRANCH  22  23
ATOM     23  C   UNL d   1     125.583 128.923 172.159  0.00  0.00     0.000 C 
BRANCH  23  24
ATOM     24  C   UNL d   1     124.355 128.277 171.504  0.00  0.00     0.000 C 
BRANCH  24  25
ATOM     25  C   UNL d   1     123.393 127.561 172.469  0.00  0.00     0.000 C 
ATOM     26  C   UNL d   1     123.029 126.157 171.975  0.00  0.00     0.000 C 
ATOM     27  C   UNL d   1     124.016 127.472 173.864  0.00  0.00     0.000 C 
ENDBRANCH  24  25
ENDBRANCH  23  24
ENDBRANCH  22  23
ENDBRANCH  20  22
ENDBRANCH   5  20
BRANCH  19  28
ATOM     28  O   UNL d   1     128.940 116.117 174.753  0.00  0.00    -0.385 OA
ATOM     29  H   UNL d   1     128.039 116.033 175.115  0.00  0.00     0.210 HD
ENDBRANCH  19  28
TORSDOF 6
ENDMDL
MODEL 16
REMARK VINA RESULT:    -6.792     30.889     35.103
REMARK INTER + INTRA:         -10.711
REMARK INTER:                  -9.685
REMARK INTRA:                  -1.026
REMARK UNBOUND:                -1.736
REMARK  6 active torsions:
REMARK  status: ('A' for Active; 'I' for Inactive)
REMARK    1  A    between atoms: O_1  and  C_22 
REMARK    2  A    between atoms: C_6  and  C_13 
REMARK    3  A    between atoms: C_13  and  C_21 
REMARK    4  A    between atoms: C_21  and  C_24 
REMARK    5  A    between atoms: C_24  and  C_25 
REMARK    6  A    between atoms: C_25  and  C_26 
ROOT
ATOM      1  C   UNL d   1     106.580 146.926 184.109  0.00  0.00     0.000 C 
ATOM      2  C   UNL d   1     105.227 147.129 183.380  0.00  0.00     0.000 C 
ATOM      3  C   UNL d   1     104.031 146.793 184.273  0.00  0.00     0.005 C 
ATOM      4  C   UNL d   1     104.035 147.713 185.528  0.00  0.00     0.004 C 
ATOM      5  C   UNL d   1     107.590 147.170 182.942  0.00  0.00     0.000 C 
ATOM      6  C   UNL d   1     106.604 148.004 185.210  0.00  0.00     0.000 C 
ATOM      7  C   UNL d   1     102.879 147.313 186.532  0.00  0.00     0.015 C 
ATOM      8  C   UNL d   1     105.392 146.356 182.086  0.00  0.00     0.000 C 
ATOM      9  C   UNL d   1     105.434 147.842 186.197  0.00  0.00     0.000 C 
ATOM     10  C   UNL d   1     106.842 146.636 181.683  0.00  0.00     0.000 C 
ATOM     11  C   UNL d   1     102.699 146.925 183.522  0.00  0.00     0.025 C 
ATOM     12  C   UNL d   1     106.719 145.502 184.702  0.00  0.00     0.000 C 
ATOM     13  C   UNL d   1     101.578 147.018 185.771  0.00  0.00    -0.047 C 
ATOM     14  C   UNL d   1     102.633 148.509 187.498  0.00  0.00     0.006 C 
ATOM     15  C   UNL d   1     101.516 146.874 184.437  0.00  0.00    -0.035 C 
ATOM     16  C   UNL d   1     103.258 146.057 187.354  0.00  0.00     0.004 C 
ATOM     17  C   UNL d   1     100.317 146.905 186.607  0.00  0.00     0.051 C 
ATOM     18  C   UNL d   1     101.384 148.365 188.368  0.00  0.00     0.030 C 
ATOM     19  C   UNL d   1     100.137 148.113 187.524  0.00  0.00     0.115 C 
ENDROOT
BRANCH   5  20
ATOM     20  C   UNL d   1     109.046 146.596 183.033  0.00  0.00     0.000 C 
ATOM     21  C   UNL d   1     109.928 147.365 184.025  0.00  0.00     0.000 C 
BRANCH  20  22
ATOM     22  C   UNL d   1     109.687 146.587 181.615  0.00  0.00     0.000 C 
BRANCH  22  23
ATOM     23  C   UNL d   1     110.265 147.906 181.080  0.00  0.00     0.000 C 
BRANCH  23  24
ATOM     24  C   UNL d   1     109.447 148.614 179.992  0.00  0.00     0.000 C 
BRANCH  24  25
ATOM     25  C   UNL d   1     109.408 147.903 178.628  0.00  0.00     0.000 C 
ATOM     26  C   UNL d   1     108.049 147.247 178.364  0.00  0.00     0.000 C 
ATOM     27  C   UNL d   1     109.730 148.896 177.508  0.00  0.00     0.000 C 
ENDBRANCH  24  25
ENDBRANCH  23  24
ENDBRANCH  22  23
ENDBRANCH  20  22
ENDBRANCH   5  20
BRANCH  19  28
ATOM     28  O   UNL d   1      99.024 147.874 188.384  0.00  0.00    -0.385 OA
ATOM     29  H   UNL d   1      99.222 147.071 188.901  0.00  0.00     0.210 HD
ENDBRANCH  19  28
TORSDOF 6
ENDMDL
MODEL 17
REMARK VINA RESULT:    -6.771      3.239      8.345
REMARK INTER + INTRA:         -10.684
REMARK INTER:                  -9.705
REMARK INTRA:                  -0.979
REMARK UNBOUND:                -1.736
REMARK  6 active torsions:
REMARK  status: ('A' for Active; 'I' for Inactive)
REMARK    1  A    between atoms: O_1  and  C_22 
REMARK    2  A    between atoms: C_6  and  C_13 
REMARK    3  A    between atoms: C_13  and  C_21 
REMARK    4  A    between atoms: C_21  and  C_24 
REMARK    5  A    between atoms: C_24  and  C_25 
REMARK    6  A    between atoms: C_25  and  C_26 
ROOT
ATOM      1  C   UNL d   1     128.385 123.524 172.279  0.00  0.00     0.000 C 
ATOM      2  C   UNL d   1     129.454 124.351 173.037  0.00  0.00     0.000 C 
ATOM      3  C   UNL d   1     128.958 125.753 173.395  0.00  0.00     0.005 C 
ATOM      4  C   UNL d   1     127.704 125.651 174.311  0.00  0.00     0.004 C 
ATOM      5  C   UNL d   1     129.201 122.246 171.904  0.00  0.00     0.000 C 
ATOM      6  C   UNL d   1     127.263 123.287 173.309  0.00  0.00     0.000 C 
ATOM      7  C   UNL d   1     127.094 127.080 174.605  0.00  0.00     0.015 C 
ATOM      8  C   UNL d   1     130.690 124.231 172.165  0.00  0.00     0.000 C 
ATOM      9  C   UNL d   1     126.660 124.608 173.816  0.00  0.00     0.000 C 
ATOM     10  C   UNL d   1     130.648 122.780 171.681  0.00  0.00     0.000 C 
ATOM     11  C   UNL d   1     130.048 126.591 174.079  0.00  0.00     0.025 C 
ATOM     12  C   UNL d   1     127.857 124.260 171.022  0.00  0.00     0.000 C 
ATOM     13  C   UNL d   1     128.208 128.095 174.899  0.00  0.00    -0.047 C 
ATOM     14  C   UNL d   1     126.172 126.973 175.854  0.00  0.00     0.006 C 
ATOM     15  C   UNL d   1     129.510 127.850 174.682  0.00  0.00    -0.035 C 
ATOM     16  C   UNL d   1     126.270 127.597 173.400  0.00  0.00     0.004 C 
ATOM     17  C   UNL d   1     127.772 129.428 175.478  0.00  0.00     0.051 C 
ATOM     18  C   UNL d   1     125.702 128.321 176.404  0.00  0.00     0.030 C 
ATOM     19  C   UNL d   1     126.878 129.247 176.703  0.00  0.00     0.115 C 
ENDROOT
BRANCH   5  20
ATOM     20  C   UNL d   1     128.732 121.338 170.716  0.00  0.00     0.000 C 
ATOM     21  C   UNL d   1     128.717 119.847 171.076  0.00  0.00     0.000 C 
BRANCH  20  22
ATOM     22  C   UNL d   1     129.639 121.598 169.478  0.00  0.00     0.000 C 
BRANCH  22  23
ATOM     23  C   UNL d   1     130.387 120.401 168.872  0.00  0.00     0.000 C 
BRANCH  23  24
ATOM     24  C   UNL d   1     131.884 120.302 169.195  0.00  0.00     0.000 C 
BRANCH  24  25
ATOM     25  C   UNL d   1     132.628 121.646 169.294  0.00  0.00     0.000 C 
ATOM     26  C   UNL d   1     133.794 121.582 170.285  0.00  0.00     0.000 C 
ATOM     27  C   UNL d   1     133.144 122.064 167.914  0.00  0.00     0.000 C 
ENDBRANCH  24  25
ENDBRANCH  23  24
ENDBRANCH  22  23
ENDBRANCH  20  22
ENDBRANCH   5  20
BRANCH  19  28
ATOM     28  O   UNL d   1     126.384 130.524 177.103  0.00  0.00    -0.385 OA
ATOM     29  H   UNL d   1     125.591 130.712 176.567  0.00  0.00     0.210 HD
ENDBRANCH  19  28
TORSDOF 6
ENDMDL
MODEL 18
REMARK VINA RESULT:    -6.707      5.848     12.340
REMARK INTER + INTRA:         -10.600
REMARK INTER:                  -9.163
REMARK INTRA:                  -1.437
REMARK UNBOUND:                -1.736
REMARK  6 active torsions:
REMARK  status: ('A' for Active; 'I' for Inactive)
REMARK    1  A    between atoms: O_1  and  C_22 
REMARK    2  A    between atoms: C_6  and  C_13 
REMARK    3  A    between atoms: C_13  and  C_21 
REMARK    4  A    between atoms: C_21  and  C_24 
REMARK    5  A    between atoms: C_24  and  C_25 
REMARK    6  A    between atoms: C_25  and  C_26 
ROOT
ATOM      1  C   UNL d   1     130.357 115.125 170.081  0.00  0.00     0.000 C 
ATOM      2  C   UNL d   1     129.982 115.939 168.816  0.00  0.00     0.000 C 
ATOM      3  C   UNL d   1     129.525 117.359 169.155  0.00  0.00     0.005 C 
ATOM      4  C   UNL d   1     130.667 118.121 169.885  0.00  0.00     0.004 C 
ATOM      5  C   UNL d   1     130.611 113.712 169.466  0.00  0.00     0.000 C 
ATOM      6  C   UNL d   1     131.617 115.816 170.639  0.00  0.00     0.000 C 
ATOM      7  C   UNL d   1     130.188 119.554 170.355  0.00  0.00     0.015 C 
ATOM      8  C   UNL d   1     129.016 115.034 168.076  0.00  0.00     0.000 C 
ATOM      9  C   UNL d   1     131.351 117.286 171.006  0.00  0.00     0.000 C 
ATOM     10  C   UNL d   1     129.608 113.637 168.275  0.00  0.00     0.000 C 
ATOM     11  C   UNL d   1     129.084 118.134 167.904  0.00  0.00     0.025 C 
ATOM     12  C   UNL d   1     129.211 115.101 171.124  0.00  0.00     0.000 C 
ATOM     13  C   UNL d   1     129.358 120.236 169.257  0.00  0.00    -0.047 C 
ATOM     14  C   UNL d   1     131.447 120.423 170.642  0.00  0.00     0.006 C 
ATOM     15  C   UNL d   1     128.900 119.595 168.170  0.00  0.00    -0.035 C 
ATOM     16  C   UNL d   1     129.321 119.465 171.635  0.00  0.00     0.004 C 
ATOM     17  C   UNL d   1     129.075 121.714 169.443  0.00  0.00     0.051 C 
ATOM     18  C   UNL d   1     131.147 121.905 170.872  0.00  0.00     0.030 C 
ATOM     19  C   UNL d   1     130.354 122.504 169.714  0.00  0.00     0.115 C 
ENDROOT
BRANCH   5  20
ATOM     20  C   UNL d   1     130.527 112.436 170.372  0.00  0.00     0.000 C 
ATOM     21  C   UNL d   1     131.758 112.259 171.268  0.00  0.00     0.000 C 
BRANCH  20  22
ATOM     22  C   UNL d   1     130.309 111.181 169.478  0.00  0.00     0.000 C 
BRANCH  22  23
ATOM     23  C   UNL d   1     131.550 110.390 169.036  0.00  0.00     0.000 C 
BRANCH  23  24
ATOM     24  C   UNL d   1     132.173 110.798 167.695  0.00  0.00     0.000 C 
BRANCH  24  25
ATOM     25  C   UNL d   1     133.652 111.220 167.755  0.00  0.00     0.000 C 
ATOM     26  C   UNL d   1     133.813 112.674 168.209  0.00  0.00     0.000 C 
ATOM     27  C   UNL d   1     134.426 110.295 168.698  0.00  0.00     0.000 C 
ENDBRANCH  24  25
ENDBRANCH  23  24
ENDBRANCH  22  23
ENDBRANCH  20  22
ENDBRANCH   5  20
BRANCH  19  28
ATOM     28  O   UNL d   1     130.003 123.851 170.028  0.00  0.00    -0.385 OA
ATOM     29  H   UNL d   1     129.693 124.272 169.205  0.00  0.00     0.210 HD
ENDBRANCH  19  28
TORSDOF 6
ENDMDL
MODEL 19
REMARK VINA RESULT:    -6.688     28.738     33.634
REMARK INTER + INTRA:         -10.575
REMARK INTER:                  -9.198
REMARK INTRA:                  -1.376
REMARK UNBOUND:                -1.736
REMARK  6 active torsions:
REMARK  status: ('A' for Active; 'I' for Inactive)
REMARK    1  A    between atoms: O_1  and  C_22 
REMARK    2  A    between atoms: C_6  and  C_13 
REMARK    3  A    between atoms: C_13  and  C_21 
REMARK    4  A    between atoms: C_21  and  C_24 
REMARK    5  A    between atoms: C_24  and  C_25 
REMARK    6  A    between atoms: C_25  and  C_26 
ROOT
ATOM      1  C   UNL d   1     128.814 141.919 200.145  0.00  0.00     0.000 C 
ATOM      2  C   UNL d   1     130.044 142.366 199.315  0.00  0.00     0.000 C 
ATOM      3  C   UNL d   1     131.138 142.985 200.186  0.00  0.00     0.005 C 
ATOM      4  C   UNL d   1     131.628 141.946 201.235  0.00  0.00     0.004 C 
ATOM      5  C   UNL d   1     127.823 141.498 199.013  0.00  0.00     0.000 C 
ATOM      6  C   UNL d   1     129.324 140.753 201.014  0.00  0.00     0.000 C 
ATOM      7  C   UNL d   1     132.677 142.590 202.229  0.00  0.00     0.015 C 
ATOM      8  C   UNL d   1     129.446 143.214 198.208  0.00  0.00     0.000 C 
ATOM      9  C   UNL d   1     130.469 141.188 201.944  0.00  0.00     0.000 C 
ATOM     10  C   UNL d   1     128.159 142.470 197.842  0.00  0.00     0.000 C 
ATOM     11  C   UNL d   1     132.320 143.494 199.349  0.00  0.00     0.025 C 
ATOM     12  C   UNL d   1     128.242 143.068 201.013  0.00  0.00     0.000 C 
ATOM     13  C   UNL d   1     133.673 143.477 201.468  0.00  0.00    -0.047 C 
ATOM     14  C   UNL d   1     133.461 141.441 202.927  0.00  0.00     0.006 C 
ATOM     15  C   UNL d   1     133.509 143.845 200.187  0.00  0.00    -0.035 C 
ATOM     16  C   UNL d   1     131.973 143.458 203.302  0.00  0.00     0.004 C 
ATOM     17  C   UNL d   1     134.901 143.927 202.236  0.00  0.00     0.051 C 
ATOM     18  C   UNL d   1     134.672 141.910 203.735  0.00  0.00     0.030 C 
ATOM     19  C   UNL d   1     135.624 142.750 202.887  0.00  0.00     0.115 C 
ENDROOT
BRANCH   5  20
ATOM     20  C   UNL d   1     126.282 141.451 199.298  0.00  0.00     0.000 C 
ATOM     21  C   UNL d   1     125.823 140.103 199.868  0.00  0.00     0.000 C 
BRANCH  20  22
ATOM     22  C   UNL d   1     125.505 141.792 197.994  0.00  0.00     0.000 C 
BRANCH  22  23
ATOM     23  C   UNL d   1     124.662 140.682 197.348  0.00  0.00     0.000 C 
BRANCH  23  24
ATOM     24  C   UNL d   1     124.843 140.484 195.838  0.00  0.00     0.000 C 
BRANCH  24  25
ATOM     25  C   UNL d   1     125.911 139.453 195.430  0.00  0.00     0.000 C 
ATOM     26  C   UNL d   1     127.253 140.117 195.110  0.00  0.00     0.000 C 
ATOM     27  C   UNL d   1     126.098 138.420 196.544  0.00  0.00     0.000 C 
ENDBRANCH  24  25
ENDBRANCH  23  24
ENDBRANCH  22  23
ENDBRANCH  20  22
ENDBRANCH   5  20
BRANCH  19  28
ATOM     28  O   UNL d   1     136.672 143.254 203.713  0.00  0.00    -0.385 OA
ATOM     29  H   UNL d   1     136.269 143.549 204.550  0.00  0.00     0.210 HD
ENDBRANCH  19  28
TORSDOF 6
ENDMDL
MODEL 20
REMARK VINA RESULT:    -6.670     25.429     30.308
REMARK INTER + INTRA:         -10.551
REMARK INTER:                  -9.254
REMARK INTRA:                  -1.297
REMARK UNBOUND:                -1.736
REMARK  6 active torsions:
REMARK  status: ('A' for Active; 'I' for Inactive)
REMARK    1  A    between atoms: O_1  and  C_22 
REMARK    2  A    between atoms: C_6  and  C_13 
REMARK    3  A    between atoms: C_13  and  C_21 
REMARK    4  A    between atoms: C_21  and  C_24 
REMARK    5  A    between atoms: C_24  and  C_25 
REMARK    6  A    between atoms: C_25  and  C_26 
ROOT
ATOM      1  C   UNL d   1     125.840 139.457 195.663  0.00  0.00     0.000 C 
ATOM      2  C   UNL d   1     126.672 140.762 195.580  0.00  0.00     0.000 C 
ATOM      3  C   UNL d   1     126.448 141.671 196.789  0.00  0.00     0.005 C 
ATOM      4  C   UNL d   1     126.862 140.928 198.092  0.00  0.00     0.004 C 
ATOM      5  C   UNL d   1     126.127 138.827 194.262  0.00  0.00     0.000 C 
ATOM      6  C   UNL d   1     126.439 138.678 196.850  0.00  0.00     0.000 C 
ATOM      7  C   UNL d   1     126.533 141.796 199.373  0.00  0.00     0.015 C 
ATOM      8  C   UNL d   1     126.349 141.312 194.203  0.00  0.00     0.000 C 
ATOM      9  C   UNL d   1     126.333 139.467 198.166  0.00  0.00     0.000 C 
ATOM     10  C   UNL d   1     126.287 140.061 193.323  0.00  0.00     0.000 C 
ATOM     11  C   UNL d   1     127.217 142.994 196.664  0.00  0.00     0.025 C 
ATOM     12  C   UNL d   1     124.330 139.737 195.869  0.00  0.00     0.000 C 
ATOM     13  C   UNL d   1     126.914 143.266 199.146  0.00  0.00    -0.047 C 
ATOM     14  C   UNL d   1     127.365 141.243 200.567  0.00  0.00     0.006 C 
ATOM     15  C   UNL d   1     127.236 143.770 197.943  0.00  0.00    -0.035 C 
ATOM     16  C   UNL d   1     125.026 141.732 199.722  0.00  0.00     0.004 C 
ATOM     17  C   UNL d   1     126.927 144.158 200.372  0.00  0.00     0.051 C 
ATOM     18  C   UNL d   1     127.336 142.128 201.814  0.00  0.00     0.030 C 
ATOM     19  C   UNL d   1     127.766 143.558 201.498  0.00  0.00     0.115 C 
ENDROOT
BRANCH   5  20
ATOM     20  C   UNL d   1     125.138 137.769 193.661  0.00  0.00     0.000 C 
ATOM     21  C   UNL d   1     125.636 136.328 193.824  0.00  0.00     0.000 C 
BRANCH  20  22
ATOM     22  C   UNL d   1     124.879 138.098 192.162  0.00  0.00     0.000 C 
BRANCH  22  23
ATOM     23  C   UNL d   1     123.421 138.225 191.696  0.00  0.00     0.000 C 
BRANCH  23  24
ATOM     24  C   UNL d   1     122.384 137.416 192.485  0.00  0.00     0.000 C 
BRANCH  24  25
ATOM     25  C   UNL d   1     121.699 138.167 193.640  0.00  0.00     0.000 C 
ATOM     26  C   UNL d   1     120.293 138.641 193.259  0.00  0.00     0.000 C 
ATOM     27  C   UNL d   1     121.624 137.272 194.880  0.00  0.00     0.000 C 
ENDBRANCH  24  25
ENDBRANCH  23  24
ENDBRANCH  22  23
ENDBRANCH  20  22
ENDBRANCH   5  20
BRANCH  19  28
ATOM     28  O   UNL d   1     127.613 144.366 202.664  0.00  0.00    -0.385 OA
ATOM     29  H   UNL d   1     127.317 143.783 203.387  0.00  0.00     0.210 HD
ENDBRANCH  19  28
TORSDOF 6
ENDMDL
