MODEL 1
REMARK VINA RESULT:   -11.625      0.000      0.000
REMARK INTER + INTRA:         -16.312
REMARK INTER:                 -15.363
REMARK INTRA:                  -0.949
REMARK UNBOUND:                -0.949
REMARK  6 active torsions:
REMARK  status: ('A' for Active; 'I' for Inactive)
REMARK    1  A    between atoms: O_1  and  C_22 
REMARK    2  A    between atoms: C_6  and  C_13 
REMARK    3  A    between atoms: C_13  and  C_21 
REMARK    4  A    between atoms: C_21  and  C_24 
REMARK    5  A    between atoms: C_24  and  C_25 
REMARK    6  A    between atoms: C_25  and  C_26 
ROOT
ATOM      1  C   UNL d   1     137.227 122.678 143.993  0.00  0.00     0.000 C 
ATOM      2  C   UNL d   1     137.771 124.100 144.280  0.00  0.00     0.000 C 
ATOM      3  C   UNL d   1     136.883 124.876 145.254  0.00  0.00     0.005 C 
ATOM      4  C   UNL d   1     136.801 124.118 146.611  0.00  0.00     0.004 C 
ATOM      5  C   UNL d   1     138.207 122.200 142.874  0.00  0.00     0.000 C 
ATOM      6  C   UNL d   1     137.365 121.922 145.329  0.00  0.00     0.000 C 
ATOM      7  C   UNL d   1     135.795 124.831 147.602  0.00  0.00     0.015 C 
ATOM      8  C   UNL d   1     138.001 124.687 142.900  0.00  0.00     0.000 C 
ATOM      9  C   UNL d   1     136.554 122.590 146.452  0.00  0.00     0.000 C 
ATOM     10  C   UNL d   1     138.550 123.506 142.095  0.00  0.00     0.000 C 
ATOM     11  C   UNL d   1     137.388 126.309 145.476  0.00  0.00     0.025 C 
ATOM     12  C   UNL d   1     135.758 122.700 143.500  0.00  0.00     0.000 C 
ATOM     13  C   UNL d   1     135.978 126.355 147.557  0.00  0.00    -0.047 C 
ATOM     14  C   UNL d   1     136.096 124.334 149.046  0.00  0.00     0.006 C 
ATOM     15  C   UNL d   1     136.705 126.987 146.622  0.00  0.00    -0.035 C 
ATOM     16  C   UNL d   1     134.325 124.505 147.241  0.00  0.00     0.004 C 
ATOM     17  C   UNL d   1     135.294 127.150 148.653  0.00  0.00     0.051 C 
ATOM     18  C   UNL d   1     135.367 125.114 150.142  0.00  0.00     0.030 C 
ATOM     19  C   UNL d   1     135.638 126.613 150.040  0.00  0.00     0.115 C 
ENDROOT
BRANCH   5  20
ATOM     20  C   UNL d   1     137.785 121.045 141.902  0.00  0.00     0.000 C 
ATOM     21  C   UNL d   1     138.126 119.653 142.449  0.00  0.00     0.000 C 
BRANCH  20  22
ATOM     22  C   UNL d   1     138.447 121.271 140.512  0.00  0.00     0.000 C 
BRANCH  22  23
ATOM     23  C   UNL d   1     139.718 120.473 140.184  0.00  0.00     0.000 C 
BRANCH  23  24
ATOM     24  C   UNL d   1     140.553 120.983 139.003  0.00  0.00     0.000 C 
BRANCH  24  25
ATOM     25  C   UNL d   1     141.951 121.517 139.364  0.00  0.00     0.000 C 
ATOM     26  C   UNL d   1     142.617 122.221 138.179  0.00  0.00     0.000 C 
ATOM     27  C   UNL d   1     141.856 122.480 140.551  0.00  0.00     0.000 C 
ENDBRANCH  24  25
ENDBRANCH  23  24
ENDBRANCH  22  23
ENDBRANCH  20  22
ENDBRANCH   5  20
BRANCH  19  28
ATOM     28  O   UNL d   1     134.850 127.302 151.009  0.00  0.00    -0.385 OA
ATOM     29  H   UNL d   1     134.263 126.647 151.428  0.00  0.00     0.210 HD
ENDBRANCH  19  28
TORSDOF 6
ENDMDL
MODEL 2
REMARK VINA RESULT:   -10.559      1.189      2.461
REMARK INTER + INTRA:         -14.903
REMARK INTER:                 -14.211
REMARK INTRA:                  -0.692
REMARK UNBOUND:                -0.949
REMARK  6 active torsions:
REMARK  status: ('A' for Active; 'I' for Inactive)
REMARK    1  A    between atoms: O_1  and  C_22 
REMARK    2  A    between atoms: C_6  and  C_13 
REMARK    3  A    between atoms: C_13  and  C_21 
REMARK    4  A    between atoms: C_21  and  C_24 
REMARK    5  A    between atoms: C_24  and  C_25 
REMARK    6  A    between atoms: C_25  and  C_26 
ROOT
ATOM      1  C   UNL d   1     136.916 123.900 143.722  0.00  0.00     0.000 C 
ATOM      2  C   UNL d   1     136.762 123.009 144.981  0.00  0.00     0.000 C 
ATOM      3  C   UNL d   1     136.696 123.831 146.269  0.00  0.00     0.005 C 
ATOM      4  C   UNL d   1     135.474 124.792 146.219  0.00  0.00     0.004 C 
ATOM      5  C   UNL d   1     137.125 122.822 142.612  0.00  0.00     0.000 C 
ATOM      6  C   UNL d   1     135.588 124.676 143.619  0.00  0.00     0.000 C 
ATOM      7  C   UNL d   1     135.442 125.741 147.485  0.00  0.00     0.015 C 
ATOM      8  C   UNL d   1     137.876 121.988 144.840  0.00  0.00     0.000 C 
ATOM      9  C   UNL d   1     135.332 125.544 144.864  0.00  0.00     0.000 C 
ATOM     10  C   UNL d   1     137.891 121.677 143.342  0.00  0.00     0.000 C 
ATOM     11  C   UNL d   1     136.619 122.938 147.516  0.00  0.00     0.025 C 
ATOM     12  C   UNL d   1     138.129 124.859 143.827  0.00  0.00     0.000 C 
ATOM     13  C   UNL d   1     135.779 124.955 148.760  0.00  0.00    -0.047 C 
ATOM     14  C   UNL d   1     134.007 126.327 147.622  0.00  0.00     0.006 C 
ATOM     15  C   UNL d   1     136.276 123.708 148.753  0.00  0.00    -0.035 C 
ATOM     16  C   UNL d   1     136.460 126.900 147.343  0.00  0.00     0.004 C 
ATOM     17  C   UNL d   1     135.508 125.657 150.077  0.00  0.00     0.051 C 
ATOM     18  C   UNL d   1     133.757 127.071 148.935  0.00  0.00     0.030 C 
ATOM     19  C   UNL d   1     134.082 126.199 150.146  0.00  0.00     0.115 C 
ENDROOT
BRANCH   5  20
ATOM     20  C   UNL d   1     137.819 123.210 141.261  0.00  0.00     0.000 C 
ATOM     21  C   UNL d   1     136.863 123.893 140.275  0.00  0.00     0.000 C 
BRANCH  20  22
ATOM     22  C   UNL d   1     138.457 121.941 140.625  0.00  0.00     0.000 C 
BRANCH  22  23
ATOM     23  C   UNL d   1     139.380 122.133 139.412  0.00  0.00     0.000 C 
BRANCH  23  24
ATOM     24  C   UNL d   1     140.474 121.076 139.217  0.00  0.00     0.000 C 
BRANCH  24  25
ATOM     25  C   UNL d   1     141.910 121.552 139.502  0.00  0.00     0.000 C 
ATOM     26  C   UNL d   1     142.583 122.117 138.247  0.00  0.00     0.000 C 
ATOM     27  C   UNL d   1     141.905 122.611 140.607  0.00  0.00     0.000 C 
ENDBRANCH  24  25
ENDBRANCH  23  24
ENDBRANCH  22  23
ENDBRANCH  20  22
ENDBRANCH   5  20
BRANCH  19  28
ATOM     28  O   UNL d   1     133.941 126.973 151.336  0.00  0.00    -0.385 OA
ATOM     29  H   UNL d   1     133.608 127.851 151.076  0.00  0.00     0.210 HD
ENDBRANCH  19  28
TORSDOF 6
ENDMDL
MODEL 3
REMARK VINA RESULT:    -9.932      3.208      8.998
REMARK INTER + INTRA:         -14.074
REMARK INTER:                 -12.792
REMARK INTRA:                  -1.282
REMARK UNBOUND:                -0.949
REMARK  6 active torsions:
REMARK  status: ('A' for Active; 'I' for Inactive)
REMARK    1  A    between atoms: O_1  and  C_22 
REMARK    2  A    between atoms: C_6  and  C_13 
REMARK    3  A    between atoms: C_13  and  C_21 
REMARK    4  A    between atoms: C_21  and  C_24 
REMARK    5  A    between atoms: C_24  and  C_25 
REMARK    6  A    between atoms: C_25  and  C_26 
ROOT
ATOM      1  C   UNL d   1     136.120 124.459 144.538  0.00  0.00     0.000 C 
ATOM      2  C   UNL d   1     136.401 122.936 144.601  0.00  0.00     0.000 C 
ATOM      3  C   UNL d   1     136.907 122.383 143.268  0.00  0.00     0.005 C 
ATOM      4  C   UNL d   1     138.233 123.093 142.871  0.00  0.00     0.004 C 
ATOM      5  C   UNL d   1     135.474 124.705 145.939  0.00  0.00     0.000 C 
ATOM      6  C   UNL d   1     137.503 125.111 144.347  0.00  0.00     0.000 C 
ATOM      7  C   UNL d   1     138.723 122.630 141.440  0.00  0.00     0.015 C 
ATOM      8  C   UNL d   1     135.124 122.355 145.178  0.00  0.00     0.000 C 
ATOM      9  C   UNL d   1     138.188 124.638 143.053  0.00  0.00     0.000 C 
ATOM     10  C   UNL d   1     134.709 123.380 146.236  0.00  0.00     0.000 C 
ATOM     11  C   UNL d   1     137.112 120.863 143.317  0.00  0.00     0.025 C 
ATOM     12  C   UNL d   1     135.152 124.829 143.386  0.00  0.00     0.000 C 
ATOM     13  C   UNL d   1     138.557 121.112 141.275  0.00  0.00    -0.047 C 
ATOM     14  C   UNL d   1     140.231 122.987 141.298  0.00  0.00     0.006 C 
ATOM     15  C   UNL d   1     137.861 120.346 142.129  0.00  0.00    -0.035 C 
ATOM     16  C   UNL d   1     137.919 123.333 140.318  0.00  0.00     0.004 C 
ATOM     17  C   UNL d   1     139.244 120.484 140.077  0.00  0.00     0.051 C 
ATOM     18  C   UNL d   1     140.904 122.385 140.063  0.00  0.00     0.030 C 
ATOM     19  C   UNL d   1     140.720 120.871 140.005  0.00  0.00     0.115 C 
ENDROOT
BRANCH   5  20
ATOM     20  C   UNL d   1     134.566 125.961 146.174  0.00  0.00     0.000 C 
ATOM     21  C   UNL d   1     135.364 127.206 146.578  0.00  0.00     0.000 C 
BRANCH  20  22
ATOM     22  C   UNL d   1     133.487 125.625 147.244  0.00  0.00     0.000 C 
BRANCH  22  23
ATOM     23  C   UNL d   1     133.365 126.558 148.458  0.00  0.00     0.000 C 
BRANCH  23  24
ATOM     24  C   UNL d   1     133.574 125.913 149.834  0.00  0.00     0.000 C 
BRANCH  24  25
ATOM     25  C   UNL d   1     135.022 125.923 150.355  0.00  0.00     0.000 C 
ATOM     26  C   UNL d   1     135.877 124.841 149.689  0.00  0.00     0.000 C 
ATOM     27  C   UNL d   1     135.655 127.298 150.122  0.00  0.00     0.000 C 
ENDBRANCH  24  25
ENDBRANCH  23  24
ENDBRANCH  22  23
ENDBRANCH  20  22
ENDBRANCH   5  20
BRANCH  19  28
ATOM     28  O   UNL d   1     141.265 120.376 138.783  0.00  0.00    -0.385 OA
ATOM     29  H   UNL d   1     141.909 119.681 139.011  0.00  0.00     0.210 HD
ENDBRANCH  19  28
TORSDOF 6
ENDMDL
MODEL 4
REMARK VINA RESULT:    -9.755      3.149      9.498
REMARK INTER + INTRA:         -13.840
REMARK INTER:                 -12.989
REMARK INTRA:                  -0.851
REMARK UNBOUND:                -0.949
REMARK  6 active torsions:
REMARK  status: ('A' for Active; 'I' for Inactive)
REMARK    1  A    between atoms: O_1  and  C_22 
REMARK    2  A    between atoms: C_6  and  C_13 
REMARK    3  A    between atoms: C_13  and  C_21 
REMARK    4  A    between atoms: C_21  and  C_24 
REMARK    5  A    between atoms: C_24  and  C_25 
REMARK    6  A    between atoms: C_25  and  C_26 
ROOT
ATOM      1  C   UNL d   1     135.885 125.267 147.040  0.00  0.00     0.000 C 
ATOM      2  C   UNL d   1     136.811 124.024 147.078  0.00  0.00     0.000 C 
ATOM      3  C   UNL d   1     136.824 123.271 145.747  0.00  0.00     0.005 C 
ATOM      4  C   UNL d   1     137.336 124.207 144.615  0.00  0.00     0.004 C 
ATOM      5  C   UNL d   1     135.933 125.724 148.533  0.00  0.00     0.000 C 
ATOM      6  C   UNL d   1     136.561 126.237 146.052  0.00  0.00     0.000 C 
ATOM      7  C   UNL d   1     137.251 123.496 143.204  0.00  0.00     0.015 C 
ATOM      8  C   UNL d   1     136.363 123.276 148.319  0.00  0.00     0.000 C 
ATOM      9  C   UNL d   1     136.694 125.625 144.647  0.00  0.00     0.000 C 
ATOM     10  C   UNL d   1     136.079 124.391 149.328  0.00  0.00     0.000 C 
ATOM     11  C   UNL d   1     137.684 122.001 145.815  0.00  0.00     0.025 C 
ATOM     12  C   UNL d   1     134.444 124.912 146.594  0.00  0.00     0.000 C 
ATOM     13  C   UNL d   1     137.727 122.040 143.301  0.00  0.00    -0.047 C 
ATOM     14  C   UNL d   1     138.178 124.261 142.214  0.00  0.00     0.006 C 
ATOM     15  C   UNL d   1     137.935 121.404 144.466  0.00  0.00    -0.035 C 
ATOM     16  C   UNL d   1     135.802 123.500 142.660  0.00  0.00     0.004 C 
ATOM     17  C   UNL d   1     137.976 121.322 141.989  0.00  0.00     0.051 C 
ATOM     18  C   UNL d   1     138.387 123.549 140.876  0.00  0.00     0.030 C 
ATOM     19  C   UNL d   1     138.897 122.123 141.071  0.00  0.00     0.115 C 
ENDROOT
BRANCH   5  20
ATOM     20  C   UNL d   1     134.787 126.620 149.116  0.00  0.00     0.000 C 
ATOM     21  C   UNL d   1     135.044 128.119 148.919  0.00  0.00     0.000 C 
BRANCH  20  22
ATOM     22  C   UNL d   1     134.587 126.287 150.624  0.00  0.00     0.000 C 
BRANCH  22  23
ATOM     23  C   UNL d   1     133.189 125.846 151.082  0.00  0.00     0.000 C 
BRANCH  23  24
ATOM     24  C   UNL d   1     132.981 124.338 151.271  0.00  0.00     0.000 C 
BRANCH  24  25
ATOM     25  C   UNL d   1     132.255 123.929 152.565  0.00  0.00     0.000 C 
ATOM     26  C   UNL d   1     130.897 124.625 152.703  0.00  0.00     0.000 C 
ATOM     27  C   UNL d   1     132.064 122.410 152.603  0.00  0.00     0.000 C 
ENDBRANCH  24  25
ENDBRANCH  23  24
ENDBRANCH  22  23
ENDBRANCH  20  22
ENDBRANCH   5  20
BRANCH  19  28
ATOM     28  O   UNL d   1     138.967 121.469 139.805  0.00  0.00    -0.385 OA
ATOM     29  H   UNL d   1     139.831 121.688 139.411  0.00  0.00     0.210 HD
ENDBRANCH  19  28
TORSDOF 6
ENDMDL
MODEL 5
REMARK VINA RESULT:    -9.604      3.723     10.132
REMARK INTER + INTRA:         -13.640
REMARK INTER:                 -12.817
REMARK INTRA:                  -0.824
REMARK UNBOUND:                -0.949
REMARK  6 active torsions:
REMARK  status: ('A' for Active; 'I' for Inactive)
REMARK    1  A    between atoms: O_1  and  C_22 
REMARK    2  A    between atoms: C_6  and  C_13 
REMARK    3  A    between atoms: C_13  and  C_21 
REMARK    4  A    between atoms: C_21  and  C_24 
REMARK    5  A    between atoms: C_24  and  C_25 
REMARK    6  A    between atoms: C_25  and  C_26 
ROOT
ATOM      1  C   UNL d   1     134.668 124.558 148.964  0.00  0.00     0.000 C 
ATOM      2  C   UNL d   1     135.125 125.660 147.975  0.00  0.00     0.000 C 
ATOM      3  C   UNL d   1     136.191 125.157 146.999  0.00  0.00     0.005 C 
ATOM      4  C   UNL d   1     135.624 123.976 146.161  0.00  0.00     0.004 C 
ATOM      5  C   UNL d   1     133.737 125.375 149.917  0.00  0.00     0.000 C 
ATOM      6  C   UNL d   1     133.936 123.519 148.092  0.00  0.00     0.000 C 
ATOM      7  C   UNL d   1     136.738 123.355 145.224  0.00  0.00     0.015 C 
ATOM      8  C   UNL d   1     135.473 126.832 148.873  0.00  0.00     0.000 C 
ATOM      9  C   UNL d   1     134.858 122.923 147.014  0.00  0.00     0.000 C 
ATOM     10  C   UNL d   1     134.391 126.789 149.954  0.00  0.00     0.000 C 
ATOM     11  C   UNL d   1     136.692 126.274 146.072  0.00  0.00     0.025 C 
ATOM     12  C   UNL d   1     135.858 123.924 149.727  0.00  0.00     0.000 C 
ATOM     13  C   UNL d   1     137.572 124.463 144.566  0.00  0.00    -0.047 C 
ATOM     14  C   UNL d   1     136.034 122.528 144.109  0.00  0.00     0.006 C 
ATOM     15  C   UNL d   1     137.520 125.752 144.940  0.00  0.00    -0.035 C 
ATOM     16  C   UNL d   1     137.693 122.434 146.022  0.00  0.00     0.004 C 
ATOM     17  C   UNL d   1     138.481 124.039 143.428  0.00  0.00     0.051 C 
ATOM     18  C   UNL d   1     136.968 122.068 142.988  0.00  0.00     0.030 C 
ATOM     19  C   UNL d   1     137.725 123.240 142.369  0.00  0.00     0.115 C 
ENDROOT
BRANCH   5  20
ATOM     20  C   UNL d   1     133.431 124.843 151.359  0.00  0.00     0.000 C 
ATOM     21  C   UNL d   1     132.583 123.566 151.356  0.00  0.00     0.000 C 
BRANCH  20  22
ATOM     22  C   UNL d   1     132.738 125.965 152.187  0.00  0.00     0.000 C 
BRANCH  22  23
ATOM     23  C   UNL d   1     131.963 125.552 153.447  0.00  0.00     0.000 C 
BRANCH  23  24
ATOM     24  C   UNL d   1     130.519 126.059 153.552  0.00  0.00     0.000 C 
BRANCH  24  25
ATOM     25  C   UNL d   1     129.491 125.309 152.686  0.00  0.00     0.000 C 
ATOM     26  C   UNL d   1     128.982 124.039 153.375  0.00  0.00     0.000 C 
ATOM     27  C   UNL d   1     128.312 126.227 152.356  0.00  0.00     0.000 C 
ENDBRANCH  24  25
ENDBRANCH  23  24
ENDBRANCH  22  23
ENDBRANCH  20  22
ENDBRANCH   5  20
BRANCH  19  28
ATOM     28  O   UNL d   1     138.660 122.746 141.412  0.00  0.00    -0.385 OA
ATOM     29  H   UNL d   1     139.206 122.072 141.857  0.00  0.00     0.210 HD
ENDBRANCH  19  28
TORSDOF 6
ENDMDL
MODEL 6
REMARK VINA RESULT:    -9.578      3.602     10.254
REMARK INTER + INTRA:         -13.607
REMARK INTER:                 -13.120
REMARK INTRA:                  -0.487
REMARK UNBOUND:                -0.949
REMARK  6 active torsions:
REMARK  status: ('A' for Active; 'I' for Inactive)
REMARK    1  A    between atoms: O_1  and  C_22 
REMARK    2  A    between atoms: C_6  and  C_13 
REMARK    3  A    between atoms: C_13  and  C_21 
REMARK    4  A    between atoms: C_21  and  C_24 
REMARK    5  A    between atoms: C_24  and  C_25 
REMARK    6  A    between atoms: C_25  and  C_26 
ROOT
ATOM      1  C   UNL d   1     134.726 124.588 148.846  0.00  0.00     0.000 C 
ATOM      2  C   UNL d   1     135.159 125.598 147.753  0.00  0.00     0.000 C 
ATOM      3  C   UNL d   1     136.257 125.039 146.847  0.00  0.00     0.005 C 
ATOM      4  C   UNL d   1     135.745 123.757 146.129  0.00  0.00     0.004 C 
ATOM      5  C   UNL d   1     133.753 125.463 149.698  0.00  0.00     0.000 C 
ATOM      6  C   UNL d   1     134.046 123.438 148.077  0.00  0.00     0.000 C 
ATOM      7  C   UNL d   1     136.895 123.085 145.274  0.00  0.00     0.015 C 
ATOM      8  C   UNL d   1     135.451 126.869 148.529  0.00  0.00     0.000 C 
ATOM      9  C   UNL d   1     135.005 122.769 147.077  0.00  0.00     0.000 C 
ATOM     10  C   UNL d   1     134.354 126.898 149.596  0.00  0.00     0.000 C 
ATOM     11  C   UNL d   1     136.732 126.072 145.815  0.00  0.00     0.025 C 
ATOM     12  C   UNL d   1     135.926 124.081 149.684  0.00  0.00     0.000 C 
ATOM     13  C   UNL d   1     137.699 124.149 144.515  0.00  0.00    -0.047 C 
ATOM     14  C   UNL d   1     136.239 122.122 144.242  0.00  0.00     0.006 C 
ATOM     15  C   UNL d   1     137.595 125.467 144.753  0.00  0.00    -0.035 C 
ATOM     16  C   UNL d   1     137.871 122.287 146.174  0.00  0.00     0.004 C 
ATOM     17  C   UNL d   1     138.640 123.645 143.437  0.00  0.00     0.051 C 
ATOM     18  C   UNL d   1     137.206 121.583 143.186  0.00  0.00     0.030 C 
ATOM     19  C   UNL d   1     137.929 122.713 142.458  0.00  0.00     0.115 C 
ENDROOT
BRANCH   5  20
ATOM     20  C   UNL d   1     133.443 125.072 151.184  0.00  0.00     0.000 C 
ATOM     21  C   UNL d   1     132.746 123.712 151.309  0.00  0.00     0.000 C 
BRANCH  20  22
ATOM     22  C   UNL d   1     132.591 126.193 151.847  0.00  0.00     0.000 C 
BRANCH  22  23
ATOM     23  C   UNL d   1     132.496 126.211 153.380  0.00  0.00     0.000 C 
BRANCH  23  24
ATOM     24  C   UNL d   1     131.961 127.503 154.011  0.00  0.00     0.000 C 
BRANCH  24  25
ATOM     25  C   UNL d   1     132.886 128.161 155.052  0.00  0.00     0.000 C 
ATOM     26  C   UNL d   1     132.577 129.650 155.229  0.00  0.00     0.000 C 
ATOM     27  C   UNL d   1     132.758 127.443 156.398  0.00  0.00     0.000 C 
ENDBRANCH  24  25
ENDBRANCH  23  24
ENDBRANCH  22  23
ENDBRANCH  20  22
ENDBRANCH   5  20
BRANCH  19  28
ATOM     28  O   UNL d   1     138.897 122.158 141.568  0.00  0.00    -0.385 OA
ATOM     29  H   UNL d   1     139.006 122.784 140.828  0.00  0.00     0.210 HD
ENDBRANCH  19  28
TORSDOF 6
ENDMDL
MODEL 7
REMARK VINA RESULT:    -9.213     15.476     19.626
REMARK INTER + INTRA:         -13.124
REMARK INTER:                 -12.355
REMARK INTRA:                  -0.769
REMARK UNBOUND:                -0.949
REMARK  6 active torsions:
REMARK  status: ('A' for Active; 'I' for Inactive)
REMARK    1  A    between atoms: O_1  and  C_22 
REMARK    2  A    between atoms: C_6  and  C_13 
REMARK    3  A    between atoms: C_13  and  C_21 
REMARK    4  A    between atoms: C_21  and  C_24 
REMARK    5  A    between atoms: C_24  and  C_25 
REMARK    6  A    between atoms: C_25  and  C_26 
ROOT
ATOM      1  C   UNL d   1     128.006 131.171 158.355  0.00  0.00     0.000 C 
ATOM      2  C   UNL d   1     127.611 132.241 159.404  0.00  0.00     0.000 C 
ATOM      3  C   UNL d   1     126.700 131.675 160.495  0.00  0.00     0.005 C 
ATOM      4  C   UNL d   1     127.429 130.524 161.246  0.00  0.00     0.004 C 
ATOM      5  C   UNL d   1     128.768 132.043 157.307  0.00  0.00     0.000 C 
ATOM      6  C   UNL d   1     128.895 130.172 159.122  0.00  0.00     0.000 C 
ATOM      7  C   UNL d   1     126.473 129.837 162.303  0.00  0.00     0.015 C 
ATOM      8  C   UNL d   1     127.092 133.395 158.567  0.00  0.00     0.000 C 
ATOM      9  C   UNL d   1     128.144 129.520 160.296  0.00  0.00     0.000 C 
ATOM     10  C   UNL d   1     128.037 133.419 157.363  0.00  0.00     0.000 C 
ATOM     11  C   UNL d   1     126.252 132.758 161.488  0.00  0.00     0.025 C 
ATOM     12  C   UNL d   1     126.770 130.474 157.734  0.00  0.00     0.000 C 
ATOM     13  C   UNL d   1     125.664 130.893 163.069  0.00  0.00    -0.047 C 
ATOM     14  C   UNL d   1     127.351 129.047 163.317  0.00  0.00     0.006 C 
ATOM     15  C   UNL d   1     125.598 132.184 162.706  0.00  0.00    -0.035 C 
ATOM     16  C   UNL d   1     125.481 128.867 161.616  0.00  0.00     0.004 C 
ATOM     17  C   UNL d   1     124.924 130.414 164.304  0.00  0.00     0.051 C 
ATOM     18  C   UNL d   1     126.587 128.530 164.537  0.00  0.00     0.030 C 
ATOM     19  C   UNL d   1     125.846 129.654 165.256  0.00  0.00     0.115 C 
ENDROOT
BRANCH   5  20
ATOM     20  C   UNL d   1     128.927 131.536 155.832  0.00  0.00     0.000 C 
ATOM     21  C   UNL d   1     130.388 131.271 155.448  0.00  0.00     0.000 C 
BRANCH  20  22
ATOM     22  C   UNL d   1     128.278 132.563 154.859  0.00  0.00     0.000 C 
BRANCH  22  23
ATOM     23  C   UNL d   1     128.815 132.630 153.422  0.00  0.00     0.000 C 
BRANCH  23  24
ATOM     24  C   UNL d   1     129.545 133.920 153.029  0.00  0.00     0.000 C 
BRANCH  24  25
ATOM     25  C   UNL d   1     128.946 134.679 151.831  0.00  0.00     0.000 C 
ATOM     26  C   UNL d   1     129.116 133.903 150.521  0.00  0.00     0.000 C 
ATOM     27  C   UNL d   1     127.462 134.962 152.076  0.00  0.00     0.000 C 
ENDBRANCH  24  25
ENDBRANCH  23  24
ENDBRANCH  22  23
ENDBRANCH  20  22
ENDBRANCH   5  20
BRANCH  19  28
ATOM     28  O   UNL d   1     125.062 129.104 166.312  0.00  0.00    -0.385 OA
ATOM     29  H   UNL d   1     125.628 128.481 166.803  0.00  0.00     0.210 HD
ENDBRANCH  19  28
TORSDOF 6
ENDMDL
MODEL 8
REMARK VINA RESULT:    -8.679     14.367     18.853
REMARK INTER + INTRA:         -12.419
REMARK INTER:                 -10.713
REMARK INTRA:                  -1.706
REMARK UNBOUND:                -0.949
REMARK  6 active torsions:
REMARK  status: ('A' for Active; 'I' for Inactive)
REMARK    1  A    between atoms: O_1  and  C_22 
REMARK    2  A    between atoms: C_6  and  C_13 
REMARK    3  A    between atoms: C_13  and  C_21 
REMARK    4  A    between atoms: C_21  and  C_24 
REMARK    5  A    between atoms: C_24  and  C_25 
REMARK    6  A    between atoms: C_25  and  C_26 
ROOT
ATOM      1  C   UNL d   1     129.131 129.188 158.703  0.00  0.00     0.000 C 
ATOM      2  C   UNL d   1     128.731 130.615 159.159  0.00  0.00     0.000 C 
ATOM      3  C   UNL d   1     127.511 130.608 160.082  0.00  0.00     0.005 C 
ATOM      4  C   UNL d   1     127.820 129.773 161.358  0.00  0.00     0.004 C 
ATOM      5  C   UNL d   1     130.258 129.507 157.670  0.00  0.00     0.000 C 
ATOM      6  C   UNL d   1     129.618 128.483 159.984  0.00  0.00     0.000 C 
ATOM      7  C   UNL d   1     126.540 129.647 162.280  0.00  0.00     0.015 C 
ATOM      8  C   UNL d   1     128.643 131.399 157.863  0.00  0.00     0.000 C 
ATOM      9  C   UNL d   1     128.516 128.415 161.056  0.00  0.00     0.000 C 
ATOM     10  C   UNL d   1     129.815 130.861 157.038  0.00  0.00     0.000 C 
ATOM     11  C   UNL d   1     127.077 132.029 160.469  0.00  0.00     0.025 C 
ATOM     12  C   UNL d   1     127.949 128.429 158.049  0.00  0.00     0.000 C 
ATOM     13  C   UNL d   1     125.804 130.991 162.373  0.00  0.00    -0.047 C 
ATOM     14  C   UNL d   1     127.004 129.231 163.707  0.00  0.00     0.006 C 
ATOM     15  C   UNL d   1     126.073 132.040 161.579  0.00  0.00    -0.035 C 
ATOM     16  C   UNL d   1     125.554 128.588 161.730  0.00  0.00     0.004 C 
ATOM     17  C   UNL d   1     124.733 131.103 163.442  0.00  0.00     0.051 C 
ATOM     18  C   UNL d   1     125.905 129.304 164.768  0.00  0.00     0.030 C 
ATOM     19  C   UNL d   1     125.258 130.686 164.814  0.00  0.00     0.115 C 
ENDROOT
BRANCH   5  20
ATOM     20  C   UNL d   1     130.635 128.454 156.571  0.00  0.00     0.000 C 
ATOM     21  C   UNL d   1     131.856 127.607 156.951  0.00  0.00     0.000 C 
BRANCH  20  22
ATOM     22  C   UNL d   1     130.868 129.183 155.216  0.00  0.00     0.000 C 
BRANCH  22  23
ATOM     23  C   UNL d   1     129.945 128.827 154.041  0.00  0.00     0.000 C 
BRANCH  23  24
ATOM     24  C   UNL d   1     128.793 127.863 154.351  0.00  0.00     0.000 C 
BRANCH  24  25
ATOM     25  C   UNL d   1     127.381 128.418 154.093  0.00  0.00     0.000 C 
ATOM     26  C   UNL d   1     126.299 127.549 154.742  0.00  0.00     0.000 C 
ATOM     27  C   UNL d   1     127.275 129.853 154.616  0.00  0.00     0.000 C 
ENDBRANCH  24  25
ENDBRANCH  23  24
ENDBRANCH  22  23
ENDBRANCH  20  22
ENDBRANCH   5  20
BRANCH  19  28
ATOM     28  O   UNL d   1     124.170 130.668 165.736  0.00  0.00    -0.385 OA
ATOM     29  H   UNL d   1     123.347 130.737 165.218  0.00  0.00     0.210 HD
ENDBRANCH  19  28
TORSDOF 6
ENDMDL
MODEL 9
REMARK VINA RESULT:    -8.679     25.934     29.920
REMARK INTER + INTRA:         -12.418
REMARK INTER:                 -10.678
REMARK INTRA:                  -1.740
REMARK UNBOUND:                -0.949
REMARK  6 active torsions:
REMARK  status: ('A' for Active; 'I' for Inactive)
REMARK    1  A    between atoms: O_1  and  C_22 
REMARK    2  A    between atoms: C_6  and  C_13 
REMARK    3  A    between atoms: C_13  and  C_21 
REMARK    4  A    between atoms: C_21  and  C_24 
REMARK    5  A    between atoms: C_24  and  C_25 
REMARK    6  A    between atoms: C_25  and  C_26 
ROOT
ATOM      1  C   UNL d   1     126.683 125.664 171.545  0.00  0.00     0.000 C 
ATOM      2  C   UNL d   1     128.101 125.983 171.005  0.00  0.00     0.000 C 
ATOM      3  C   UNL d   1     129.049 124.789 171.123  0.00  0.00     0.005 C 
ATOM      4  C   UNL d   1     128.491 123.589 170.305  0.00  0.00     0.004 C 
ATOM      5  C   UNL d   1     126.004 127.069 171.460  0.00  0.00     0.000 C 
ATOM      6  C   UNL d   1     126.112 124.618 170.568  0.00  0.00     0.000 C 
ATOM      7  C   UNL d   1     129.386 122.300 170.501  0.00  0.00     0.015 C 
ATOM      8  C   UNL d   1     128.478 127.270 171.716  0.00  0.00     0.000 C 
ATOM      9  C   UNL d   1     126.971 123.342 170.528  0.00  0.00     0.000 C 
ATOM     10  C   UNL d   1     127.171 128.065 171.738  0.00  0.00     0.000 C 
ATOM     11  C   UNL d   1     130.470 125.136 170.656  0.00  0.00     0.025 C 
ATOM     12  C   UNL d   1     126.716 125.129 172.998  0.00  0.00     0.000 C 
ATOM     13  C   UNL d   1     130.878 122.663 170.455  0.00  0.00    -0.047 C 
ATOM     14  C   UNL d   1     129.077 121.308 169.341  0.00  0.00     0.006 C 
ATOM     15  C   UNL d   1     131.335 123.925 170.502  0.00  0.00    -0.035 C 
ATOM     16  C   UNL d   1     129.093 121.613 171.857  0.00  0.00     0.004 C 
ATOM     17  C   UNL d   1     131.852 121.506 170.339  0.00  0.00     0.051 C 
ATOM     18  C   UNL d   1     130.039 120.121 169.260  0.00  0.00     0.030 C 
ATOM     19  C   UNL d   1     131.493 120.580 169.179  0.00  0.00     0.115 C 
ENDROOT
BRANCH   5  20
ATOM     20  C   UNL d   1     124.750 127.389 172.344  0.00  0.00     0.000 C 
ATOM     21  C   UNL d   1     123.427 127.058 171.642  0.00  0.00     0.000 C 
BRANCH  20  22
ATOM     22  C   UNL d   1     124.789 128.884 172.774  0.00  0.00     0.000 C 
BRANCH  22  23
ATOM     23  C   UNL d   1     124.743 129.199 174.277  0.00  0.00     0.000 C 
BRANCH  23  24
ATOM     24  C   UNL d   1     126.092 129.454 174.959  0.00  0.00     0.000 C 
BRANCH  24  25
ATOM     25  C   UNL d   1     126.594 128.321 175.874  0.00  0.00     0.000 C 
ATOM     26  C   UNL d   1     125.567 127.192 176.000  0.00  0.00     0.000 C 
ATOM     27  C   UNL d   1     127.916 127.762 175.341  0.00  0.00     0.000 C 
ENDBRANCH  24  25
ENDBRANCH  23  24
ENDBRANCH  22  23
ENDBRANCH  20  22
ENDBRANCH   5  20
BRANCH  19  28
ATOM     28  O   UNL d   1     132.350 119.440 169.219  0.00  0.00    -0.385 OA
ATOM     29  H   UNL d   1     133.010 119.546 168.510  0.00  0.00     0.210 HD
ENDBRANCH  19  28
TORSDOF 6
ENDMDL
MODEL 10
REMARK VINA RESULT:    -8.640      7.847     12.959
REMARK INTER + INTRA:         -12.367
REMARK INTER:                 -11.453
REMARK INTRA:                  -0.914
REMARK UNBOUND:                -0.949
REMARK  6 active torsions:
REMARK  status: ('A' for Active; 'I' for Inactive)
REMARK    1  A    between atoms: O_1  and  C_22 
REMARK    2  A    between atoms: C_6  and  C_13 
REMARK    3  A    between atoms: C_13  and  C_21 
REMARK    4  A    between atoms: C_21  and  C_24 
REMARK    5  A    between atoms: C_24  and  C_25 
REMARK    6  A    between atoms: C_25  and  C_26 
ROOT
ATOM      1  C   UNL d   1     130.350 127.132 154.198  0.00  0.00     0.000 C 
ATOM      2  C   UNL d   1     131.314 127.822 155.196  0.00  0.00     0.000 C 
ATOM      3  C   UNL d   1     131.084 129.332 155.276  0.00  0.00     0.005 C 
ATOM      4  C   UNL d   1     129.630 129.619 155.748  0.00  0.00     0.004 C 
ATOM      5  C   UNL d   1     130.912 125.674 154.195  0.00  0.00     0.000 C 
ATOM      6  C   UNL d   1     128.952 127.278 154.829  0.00  0.00     0.000 C 
ATOM      7  C   UNL d   1     129.320 131.170 155.729  0.00  0.00     0.015 C 
ATOM      8  C   UNL d   1     132.686 127.329 154.775  0.00  0.00     0.000 C 
ATOM      9  C   UNL d   1     128.560 128.753 155.021  0.00  0.00     0.000 C 
ATOM     10  C   UNL d   1     132.444 125.863 154.408  0.00  0.00     0.000 C 
ATOM     11  C   UNL d   1     132.091 130.017 156.210  0.00  0.00     0.025 C 
ATOM     12  C   UNL d   1     130.409 127.773 152.788  0.00  0.00     0.000 C 
ATOM     13  C   UNL d   1     130.506 131.968 156.290  0.00  0.00    -0.047 C 
ATOM     14  C   UNL d   1     128.073 131.432 156.623  0.00  0.00     0.006 C 
ATOM     15  C   UNL d   1     131.717 131.433 156.518  0.00  0.00    -0.035 C 
ATOM     16  C   UNL d   1     129.036 131.668 154.290  0.00  0.00     0.004 C 
ATOM     17  C   UNL d   1     130.250 133.430 156.603  0.00  0.00     0.051 C 
ATOM     18  C   UNL d   1     127.798 132.912 156.895  0.00  0.00     0.030 C 
ATOM     19  C   UNL d   1     129.019 133.611 157.487  0.00  0.00     0.115 C 
ENDROOT
BRANCH   5  20
ATOM     20  C   UNL d   1     130.611 124.720 152.987  0.00  0.00     0.000 C 
ATOM     21  C   UNL d   1     129.295 123.951 153.149  0.00  0.00     0.000 C 
BRANCH  20  22
ATOM     22  C   UNL d   1     131.804 123.740 152.794  0.00  0.00     0.000 C 
BRANCH  22  23
ATOM     23  C   UNL d   1     132.435 123.642 151.397  0.00  0.00     0.000 C 
BRANCH  23  24
ATOM     24  C   UNL d   1     133.587 124.610 151.103  0.00  0.00     0.000 C 
BRANCH  24  25
ATOM     25  C   UNL d   1     134.202 124.498 149.696  0.00  0.00     0.000 C 
ATOM     26  C   UNL d   1     135.624 123.930 149.738  0.00  0.00     0.000 C 
ATOM     27  C   UNL d   1     133.320 123.619 148.805  0.00  0.00     0.000 C 
ENDBRANCH  24  25
ENDBRANCH  23  24
ENDBRANCH  22  23
ENDBRANCH  20  22
ENDBRANCH   5  20
BRANCH  19  28
ATOM     28  O   UNL d   1     128.748 135.006 157.616  0.00  0.00    -0.385 OA
ATOM     29  H   UNL d   1     127.817 135.148 157.366  0.00  0.00     0.210 HD
ENDBRANCH  19  28
TORSDOF 6
ENDMDL
